Microsoft (R) COFF/PE Dumper Version 14.29.30137.0
Copyright (C) Microsoft Corporation.  All rights reserved.


Dump of file C:\Windows\WinSxS\amd64_microsoft-windows-i..lementationlegacyui_31bf3856ad364e35_11.0.17763.1_none_1d25bed904372ed8\wininetlui.dll

File Type: DLL

  Image has the following dependencies:

    msvcrt.dll
    api-ms-win-eventing-classicprovider-l1-1-0.dll
    api-ms-win-core-libraryloader-l1-2-0.dll
    api-ms-win-core-com-l1-1-0.dll
    OLEAUT32.dll
    api-ms-win-core-localization-l1-2-0.dll
    api-ms-win-core-timezone-l1-1-0.dll
    api-ms-win-core-datetime-l1-1-0.dll
    api-ms-win-core-synch-l1-2-0.dll
    api-ms-win-core-rtlsupport-l1-1-0.dll
    api-ms-win-core-errorhandling-l1-1-0.dll
    api-ms-win-core-processthreads-l1-1-0.dll
    api-ms-win-core-profile-l1-1-0.dll
    api-ms-win-core-sysinfo-l1-1-0.dll
    api-ms-win-core-delayload-l1-1-1.dll
    api-ms-win-core-delayload-l1-1-0.dll

  Image has the following delay load dependencies:

    WININET.dll
    USER32.dll
    GDI32.dll
    SHLWAPI.dll

  Section contains the following exports for WININETLUI.dll

    00000000 characteristics
    944563F2 time date stamp
        0.00 version
           1 ordinal base
           1 number of functions
           1 number of names

    ordinal hint RVA      name

          1    0 00001070 InternetErrorDlgEx

  Section contains the following imports:

    msvcrt.dll
             1800054D0 Import Address Table
             180006630 Import Name Table
                     0 time date stamp
                     0 Index of first forwarder reference

                         369 _vsnwprintf
                         486 malloc
                          57 __C_specific_handler
                         44C free
                          AE _amsg_exit
                          55 _XcptFilter
                         17D _initterm
                         496 memset

    api-ms-win-eventing-classicprovider-l1-1-0.dll
             1800054C0 Import Address Table
             180006620 Import Name Table
                     0 time date stamp
                     0 Index of first forwarder reference

                           6 TraceMessageVa

    api-ms-win-core-libraryloader-l1-2-0.dll
             180005410 Import Address Table
             180006570 Import Name Table
                     0 time date stamp
                     0 Index of first forwarder reference

                          1C LoadStringW

    api-ms-win-core-com-l1-1-0.dll
             1800053B0 Import Address Table
             180006510 Import Name Table
                     0 time date stamp
                     0 Index of first forwarder reference

                           9 CoCreateInstance

    OLEAUT32.dll
             180005398 Import Address Table
             1800064F8 Import Name Table
                     0 time date stamp
                     0 Index of first forwarder reference

                             Ordinal     6
                             Ordinal     2

    api-ms-win-core-localization-l1-2-0.dll
             180005420 Import Address Table
             180006580 Import Name Table
                     0 time date stamp
                     0 Index of first forwarder reference

                          23 GetUserDefaultLCID

    api-ms-win-core-timezone-l1-1-0.dll
             1800054B0 Import Address Table
             180006610 Import Name Table
                     0 time date stamp
                     0 Index of first forwarder reference

                           1 FileTimeToSystemTime

    api-ms-win-core-datetime-l1-1-0.dll
             1800053C0 Import Address Table
             180006520 Import Name Table
                     0 time date stamp
                     0 Index of first forwarder reference

                           6 GetTimeFormatW
                           2 GetDateFormatW

    api-ms-win-core-synch-l1-2-0.dll
             180005488 Import Address Table
             1800065E8 Import Name Table
                     0 time date stamp
                     0 Index of first forwarder reference

                          2D Sleep

    api-ms-win-core-rtlsupport-l1-1-0.dll
             180005468 Import Address Table
             1800065C8 Import Name Table
                     0 time date stamp
                     0 Index of first forwarder reference

                           2 RtlCaptureContext
                           9 RtlLookupFunctionEntry
                           F RtlVirtualUnwind

    api-ms-win-core-errorhandling-l1-1-0.dll
             1800053F8 Import Address Table
             180006558 Import Name Table
                     0 time date stamp
                     0 Index of first forwarder reference

                          11 UnhandledExceptionFilter
                           F SetUnhandledExceptionFilter

    api-ms-win-core-processthreads-l1-1-0.dll
             180005430 Import Address Table
             180006590 Import Name Table
                     0 time date stamp
                     0 Index of first forwarder reference

                          11 GetCurrentThreadId
                           D GetCurrentProcessId
                          4D TerminateProcess
                           C GetCurrentProcess

    api-ms-win-core-profile-l1-1-0.dll
             180005458 Import Address Table
             1800065B8 Import Name Table
                     0 time date stamp
                     0 Index of first forwarder reference

                           0 QueryPerformanceCounter

    api-ms-win-core-sysinfo-l1-1-0.dll
             180005498 Import Address Table
             1800065F8 Import Name Table
                     0 time date stamp
                     0 Index of first forwarder reference

                          15 GetSystemTimeAsFileTime
                          19 GetTickCount

    api-ms-win-core-delayload-l1-1-1.dll
             1800053E8 Import Address Table
             180006548 Import Name Table
                     0 time date stamp
                     0 Index of first forwarder reference

                           1 ResolveDelayLoadedAPI

    api-ms-win-core-delayload-l1-1-0.dll
             1800053D8 Import Address Table
             180006538 Import Name Table
                     0 time date stamp
                     0 Index of first forwarder reference

                           0 DelayLoadFailureHook

  Section contains the following delay load imports:

    WININET.dll
              00000001 Characteristics
      00000001800075B0 Address of HMODULE
      0000000180009100 Import Address Table
      0000000180006040 Import Name Table
      0000000180006240 Bound Import Name Table
      0000000000000000 Unload Import Name Table
                     0 time date stamp

                                    0000000180002B56   10E ShowSecurityInfo

    USER32.dll
              00000001 Characteristics
      00000001800075B8 Address of HMODULE
      0000000180009030 Import Address Table
      0000000180005F70 Import Name Table
      0000000180006250 Bound Import Name Table
      0000000000000000 Unload Import Name Table
                     0 time date stamp

                                    0000000180002C90   294 MessageBoxW
                                    0000000180002CA2    EE EnableWindow
                                    0000000180002CB4   255 LoadImageW
                                    0000000180002CC6   33D SetForegroundWindow
                                    0000000180002CD8    B9 DialogBoxParamW
                                    0000000180002CEA   37A SetWindowLongPtrA
                                    0000000180002CFC   1E1 GetWindowLongPtrA
                                    0000000180002D0E   14B GetDlgItem
                                    0000000180002D20   252 LoadIconA
                                    0000000180002C7E   240 IsWindow
                                    0000000180002D44   313 SendDlgItemMessageA
                                    0000000180002D56   33C SetFocus
                                    0000000180002D68   22B IsDlgButtonChecked
                                    0000000180002D7A   339 SetDlgItemTextW
                                    0000000180002D8C    B0 DestroyIcon
                                    0000000180002D9E   383 SetWindowTextW
                                    0000000180002DB0    F1 EndDialog
                                    0000000180002DC2   2B6 PostMessageA
                                    0000000180002DD4   37E SetWindowPos
                                    0000000180002DE6   1EA GetWindowRect
                                    0000000180002DF8   1D5 GetWindow
                                    0000000180002E0A   254 LoadImageA
                                    0000000180002C6C   36B SetThreadDpiAwarenessContext
                                    0000000180002BE1   144 GetDesktopWindow
                                    0000000180002D32   318 SendMessageA

    GDI32.dll
              00000001 Characteristics
      00000001800075C0 Address of HMODULE
      0000000180009000 Import Address Table
      0000000180005F40 Import Name Table
      0000000180006320 Bound Import Name Table
      0000000000000000 Unload Import Name Table
                     0 time date stamp

                                    0000000180002E1C    43 CreateFontIndirectW
                                    0000000180002EB9   2A7 GetObjectW
                                    0000000180002EA7   17D DeleteObject

    SHLWAPI.dll
              00000001 Characteristics
      00000001800075C8 Address of HMODULE
      0000000180009020 Import Address Table
      0000000180005F60 Import Name Table
      0000000180006340 Bound Import Name Table
      0000000000000000 Unload Import Name Table
                     0 time date stamp

                                    0000000180002ECB       Ordinal   215

  Summary

        1000 .data
        1000 .didat
        1000 .pdata
        2000 .rdata
        1000 .reloc
        C000 .rsrc
        3000 .text
        1000 .wpp_sf
