Microsoft (R) COFF/PE Dumper Version 14.29.30137.0
Copyright (C) Microsoft Corporation.  All rights reserved.


Dump of file C:\Windows\WinSxS\wow64_microsoft-windows-gdi-painting_31bf3856ad364e35_10.0.17763.1_none_72866c52a8963fb8\msimg32.dll

File Type: DLL

  Section contains the following exports for MSIMG32.dll

    00000000 characteristics
    E600529B time date stamp
        0.00 version
           1 ordinal base
           5 number of functions
           5 number of names

    ordinal hint RVA      name

          2    0 00001360 AlphaBlend
          3    1 00001470 DllInitialize
          4    2 00001430 GradientFill
          5    3 00001500 TransparentBlt
          1    4 000015E0 vSetDdrawflag

  Image has the following dependencies:

    GDI32.dll
    api-ms-win-core-libraryloader-l1-2-0.dll
    api-ms-win-core-sysinfo-l1-1-0.dll
    api-ms-win-core-errorhandling-l1-1-0.dll
    api-ms-win-core-processthreads-l1-1-0.dll
    api-ms-win-core-profile-l1-1-0.dll

  Section contains the following imports:

    GDI32.dll
              5B803000 Import Address Table
              5B8030E8 Import Name Table
                     0 time date stamp
                     0 Index of first forwarder reference

                  275 GetDeviceCaps
                  246 GdiTransparentBlt
                  223 GdiGradientFill
                  1E6 GdiAlphaBlend
                  2A5 GetObjectA
                  26D GetCurrentObject
                  2A6 GetObjectType

    api-ms-win-core-libraryloader-l1-2-0.dll
              5B803028 Import Address Table
              5B803110 Import Name Table
                     0 time date stamp
                     0 Index of first forwarder reference

                    1 DisableThreadLibraryCalls
                    C FreeLibrary

    api-ms-win-core-sysinfo-l1-1-0.dll
              5B803048 Import Address Table
              5B803130 Import Name Table
                     0 time date stamp
                     0 Index of first forwarder reference

                   15 GetSystemTimeAsFileTime
                   1C GetVersionExA
                   19 GetTickCount

    api-ms-win-core-errorhandling-l1-1-0.dll
              5B803020 Import Address Table
              5B803108 Import Name Table
                     0 time date stamp
                     0 Index of first forwarder reference

                    D SetLastError

    api-ms-win-core-processthreads-l1-1-0.dll
              5B803034 Import Address Table
              5B80311C Import Name Table
                     0 time date stamp
                     0 Index of first forwarder reference

                   11 GetCurrentThreadId
                    D GetCurrentProcessId

    api-ms-win-core-profile-l1-1-0.dll
              5B803040 Import Address Table
              5B803128 Import Name Table
                     0 time date stamp
                     0 Index of first forwarder reference

                    0 QueryPerformanceCounter

  Summary

        1000 .data
        1000 .idata
        1000 .reloc
        1000 .rsrc
        1000 .text
