Microsoft (R) COFF/PE Dumper Version 14.29.30137.0
Copyright (C) Microsoft Corporation.  All rights reserved.


Dump of file C:\Windows\WinSxS\amd64_microsoft-windows-gdi-painting_31bf3856ad364e35_10.0.17763.1_none_6831c20074357dbd\msimg32.dll

File Type: DLL

  Image has the following dependencies:

    ntdll.dll
    GDI32.dll
    api-ms-win-core-libraryloader-l1-2-0.dll
    api-ms-win-core-sysinfo-l1-1-0.dll
    api-ms-win-core-errorhandling-l1-1-0.dll
    api-ms-win-core-profile-l1-1-0.dll
    api-ms-win-core-processthreads-l1-1-0.dll

  Section contains the following exports for MSIMG32.dll

    00000000 characteristics
    5037C3E1 time date stamp
        0.00 version
           1 ordinal base
           5 number of functions
           5 number of names

    ordinal hint RVA      name

          2    0 00001040 AlphaBlend
          3    1 00001190 DllInitialize
          4    2 00001010 GradientFill
          5    3 00001510 TransparentBlt
          1    4 000014B0 vSetDdrawflag

  Section contains the following imports:

    ntdll.dll
             1800021E8 Import Address Table
             180002780 Import Name Table
                     0 time date stamp
                     0 Index of first forwarder reference

                         5F2 RtlVirtualUnwind
                         4CA RtlLookupFunctionEntry
                         2EA RtlCaptureContext

    GDI32.dll
             180002118 Import Address Table
             1800026B0 Import Name Table
                     0 time date stamp
                     0 Index of first forwarder reference

                         275 GetDeviceCaps
                         26D GetCurrentObject
                         2A6 GetObjectType
                         1E6 GdiAlphaBlend
                         246 GdiTransparentBlt
                         223 GdiGradientFill
                         2A5 GetObjectA

    api-ms-win-core-libraryloader-l1-2-0.dll
             180002178 Import Address Table
             180002710 Import Name Table
                     0 time date stamp
                     0 Index of first forwarder reference

                           1 DisableThreadLibraryCalls
                           C FreeLibrary

    api-ms-win-core-sysinfo-l1-1-0.dll
             1800021C8 Import Address Table
             180002760 Import Name Table
                     0 time date stamp
                     0 Index of first forwarder reference

                          1C GetVersionExA
                          15 GetSystemTimeAsFileTime
                          19 GetTickCount

    api-ms-win-core-errorhandling-l1-1-0.dll
             180002158 Import Address Table
             1800026F0 Import Name Table
                     0 time date stamp
                     0 Index of first forwarder reference

                           F SetUnhandledExceptionFilter
                           D SetLastError
                          11 UnhandledExceptionFilter

    api-ms-win-core-profile-l1-1-0.dll
             1800021B8 Import Address Table
             180002750 Import Name Table
                     0 time date stamp
                     0 Index of first forwarder reference

                           0 QueryPerformanceCounter

    api-ms-win-core-processthreads-l1-1-0.dll
             180002190 Import Address Table
             180002728 Import Name Table
                     0 time date stamp
                     0 Index of first forwarder reference

                          4D TerminateProcess
                           C GetCurrentProcess
                           D GetCurrentProcessId
                          11 GetCurrentThreadId

  Summary

        1000 .data
        1000 .pdata
        1000 .rdata
        1000 .reloc
        1000 .rsrc
        1000 .text
