Microsoft (R) COFF/PE Dumper Version 14.29.30137.0
Copyright (C) Microsoft Corporation.  All rights reserved.


Dump of file C:\Windows\WinSxS\wow64_microsoft-windows-video-for-windows_31bf3856ad364e35_10.0.17763.1_none_8d4c84e3154c41e0\msrle32.dll

File Type: DLL

  Section contains the following exports for MSRLE32.dll

    00000000 characteristics
     6F7C741 time date stamp
        0.00 version
           1 ordinal base
           1 number of functions
           1 number of names

    ordinal hint RVA      name

          1    0 00001330 DriverProc

  Image has the following dependencies:

    msvcrt.dll
    api-ms-win-core-heap-obsolete-l1-1-0.dll
    api-ms-win-core-heap-l2-1-0.dll
    api-ms-win-core-libraryloader-l1-2-0.dll
    api-ms-win-core-synch-l1-2-0.dll
    api-ms-win-core-profile-l1-1-0.dll
    api-ms-win-core-processthreads-l1-1-0.dll
    api-ms-win-core-sysinfo-l1-1-0.dll
    api-ms-win-core-errorhandling-l1-1-0.dll
    WINMM.dll

  Section contains the following imports:

    msvcrt.dll
              1C205074 Import Address Table
              1C2051F4 Import Name Table
                     0 time date stamp
                     0 Index of first forwarder reference

                  1E8 _initterm
                  50B memmove
                   6F _XcptFilter
                  4FD malloc
                  4C5 free
                  111 _amsg_exit
                  16A _except_handler4_common
                  508 memcmp
                  509 memcpy
                  50D memset

    api-ms-win-core-heap-obsolete-l1-1-0.dll
              1C20502C Import Address Table
              1C2051AC Import Name Table
                     0 time date stamp
                     0 Index of first forwarder reference

                    7 GlobalUnlock
                    4 GlobalLock
                    3 GlobalHandle

    api-ms-win-core-heap-l2-1-0.dll
              1C205018 Import Address Table
              1C205198 Import Name Table
                     0 time date stamp
                     0 Index of first forwarder reference

                    A LocalFree
                    2 GlobalFree
                    0 GlobalAlloc
                    8 LocalAlloc

    api-ms-win-core-libraryloader-l1-2-0.dll
              1C20503C Import Address Table
              1C2051BC Import Name Table
                     0 time date stamp
                     0 Index of first forwarder reference

                   1C LoadStringW

    api-ms-win-core-synch-l1-2-0.dll
              1C205060 Import Address Table
              1C2051E0 Import Name Table
                     0 time date stamp
                     0 Index of first forwarder reference

                   2D Sleep

    api-ms-win-core-profile-l1-1-0.dll
              1C205058 Import Address Table
              1C2051D8 Import Name Table
                     0 time date stamp
                     0 Index of first forwarder reference

                    0 QueryPerformanceCounter

    api-ms-win-core-processthreads-l1-1-0.dll
              1C205044 Import Address Table
              1C2051C4 Import Name Table
                     0 time date stamp
                     0 Index of first forwarder reference

                   4D TerminateProcess
                    C GetCurrentProcess
                    D GetCurrentProcessId
                   11 GetCurrentThreadId

    api-ms-win-core-sysinfo-l1-1-0.dll
              1C205068 Import Address Table
              1C2051E8 Import Name Table
                     0 time date stamp
                     0 Index of first forwarder reference

                   15 GetSystemTimeAsFileTime
                   19 GetTickCount

    api-ms-win-core-errorhandling-l1-1-0.dll
              1C20500C Import Address Table
              1C20518C Import Name Table
                     0 time date stamp
                     0 Index of first forwarder reference

                   11 UnhandledExceptionFilter
                    F SetUnhandledExceptionFilter

    WINMM.dll
              1C205000 Import Address Table
              1C205180 Import Name Table
                     0 time date stamp
                     0 Index of first forwarder reference

                    4 GetDriverModuleHandle
                    1 DefDriverProc

  Summary

        1000 .data
        1000 .idata
        1000 .reloc
        1000 .rsrc
        3000 .text
