Microsoft (R) COFF/PE Dumper Version 14.29.30137.0
Copyright (C) Microsoft Corporation.  All rights reserved.


Dump of file C:\Windows\WinSxS\amd64_microsoft-windows-ntlanui2_31bf3856ad364e35_10.0.17763.1_none_26eb3e2a369bf10f\ntlanui2.dll

File Type: DLL

  Image has the following dependencies:

    msvcrt.dll
    api-ms-win-core-libraryloader-l1-2-0.dll
    api-ms-win-core-libraryloader-l1-2-1.dll
    srvcli.dll
    netutils.dll
    wkscli.dll
    api-ms-win-core-localization-l1-2-0.dll
    api-ms-win-core-synch-l1-2-0.dll
    api-ms-win-core-rtlsupport-l1-1-0.dll
    api-ms-win-core-errorhandling-l1-1-0.dll
    api-ms-win-core-processthreads-l1-1-0.dll
    api-ms-win-core-profile-l1-1-0.dll
    api-ms-win-core-sysinfo-l1-1-0.dll
    ADVAPI32.dll
    COMCTL32.dll
    ntdll.dll
    ole32.dll
    USER32.dll

  Section contains the following exports for netobjs.dll

    00000000 characteristics
    75A92A45 time date stamp
        0.00 version
           1 ordinal base
           2 number of functions
           2 number of names

    ordinal hint RVA      name

          1    0 00001620 DllCanUnloadNow
          2    1 00001650 DllGetClassObject

  Section contains the following imports:

    msvcrt.dll
             1800032E8 Import Address Table
             180003CA8 Import Name Table
                     0 time date stamp
                     0 Index of first forwarder reference

                         501 wcschr
                          57 __C_specific_handler
                         17D _initterm
                          AE _amsg_exit
                          55 _XcptFilter
                          BF _callnewh
                         486 malloc
                         44C free
                         369 _vsnwprintf
                         492 memcpy
                         496 memset

    api-ms-win-core-libraryloader-l1-2-0.dll
             180003228 Import Address Table
             180003BE8 Import Name Table
                     0 time date stamp
                     0 Index of first forwarder reference

                          1C LoadStringW
                           1 DisableThreadLibraryCalls
                          15 GetProcAddress

    api-ms-win-core-libraryloader-l1-2-1.dll
             180003248 Import Address Table
             180003C08 Import Name Table
                     0 time date stamp
                     0 Index of first forwarder reference

                          19 LoadLibraryW

    srvcli.dll
             180003380 Import Address Table
             180003D40 Import Name Table
                     0 time date stamp
                     0 Index of first forwarder reference

                          20 NetServerGetInfo

    netutils.dll
             180003348 Import Address Table
             180003D08 Import Name Table
                     0 time date stamp
                     0 Index of first forwarder reference

                           1 NetApiBufferFree
                           0 NetApiBufferAllocate

    wkscli.dll
             180003390 Import Address Table
             180003D50 Import Name Table
                     0 time date stamp
                     0 Index of first forwarder reference

                           E NetWkstaGetInfo

    api-ms-win-core-localization-l1-2-0.dll
             180003258 Import Address Table
             180003C18 Import Name Table
                     0 time date stamp
                     0 Index of first forwarder reference

                           9 FormatMessageW

    api-ms-win-core-synch-l1-2-0.dll
             1800032C0 Import Address Table
             180003C80 Import Name Table
                     0 time date stamp
                     0 Index of first forwarder reference

                          2D Sleep

    api-ms-win-core-rtlsupport-l1-1-0.dll
             1800032A0 Import Address Table
             180003C60 Import Name Table
                     0 time date stamp
                     0 Index of first forwarder reference

                           F RtlVirtualUnwind
                           2 RtlCaptureContext
                           9 RtlLookupFunctionEntry

    api-ms-win-core-errorhandling-l1-1-0.dll
             180003210 Import Address Table
             180003BD0 Import Name Table
                     0 time date stamp
                     0 Index of first forwarder reference

                          11 UnhandledExceptionFilter
                           F SetUnhandledExceptionFilter

    api-ms-win-core-processthreads-l1-1-0.dll
             180003268 Import Address Table
             180003C28 Import Name Table
                     0 time date stamp
                     0 Index of first forwarder reference

                          11 GetCurrentThreadId
                          4D TerminateProcess
                           D GetCurrentProcessId
                           C GetCurrentProcess

    api-ms-win-core-profile-l1-1-0.dll
             180003290 Import Address Table
             180003C50 Import Name Table
                     0 time date stamp
                     0 Index of first forwarder reference

                           0 QueryPerformanceCounter

    api-ms-win-core-sysinfo-l1-1-0.dll
             1800032D0 Import Address Table
             180003C90 Import Name Table
                     0 time date stamp
                     0 Index of first forwarder reference

                          15 GetSystemTimeAsFileTime
                          19 GetTickCount

    ADVAPI32.dll
             180003188 Import Address Table
             180003B48 Import Name Table
                     0 time date stamp
                     0 Index of first forwarder reference

                         1E0 LsaQueryInformationPolicy
                         1B5 LsaClose
                         1C3 LsaFreeMemory
                         1D7 LsaOpenPolicy

    COMCTL32.dll
             1800031B0 Import Address Table
             180003B70 Import Name Table
                     0 time date stamp
                     0 Index of first forwarder reference

                             Ordinal    17
                           9 CreatePropertySheetPageW
                          31 DestroyPropertySheetPage

    ntdll.dll
             180003360 Import Address Table
             180003D20 Import Name Table
                     0 time date stamp
                     0 Index of first forwarder reference

                         452 RtlInitUnicodeStringEx

    ole32.dll
             180003370 Import Address Table
             180003D30 Import Name Table
                     0 time date stamp
                     0 Index of first forwarder reference

                         1D9 ReleaseStgMedium

    USER32.dll
             1800031D0 Import Address Table
             180003B90 Import Name Table
                     0 time date stamp
                     0 Index of first forwarder reference

                         2E7 RegisterClipboardFormatW
                         37B SetWindowLongPtrW
                         251 LoadCursorW
                         1E2 GetWindowLongPtrW
                         339 SetDlgItemTextW
                         32D SetCursor
                         294 MessageBoxW

  Summary

        1000 .data
        1000 .pdata
        2000 .rdata
        1000 .reloc
        2000 .rsrc
        2000 .text
