Microsoft (R) COFF/PE Dumper Version 14.29.30137.0
Copyright (C) Microsoft Corporation.  All rights reserved.


Dump of file C:\Windows\WinSxS\wow64_microsoft-windows-grouppolicy-script_31bf3856ad364e35_10.0.17763.1_none_6031ccb9fc3670e4\gpscript.exe

File Type: EXECUTABLE IMAGE

  Image has the following dependencies:

    api-ms-win-core-file-l1-1-0.dll
    api-ms-win-core-registry-l1-1-0.dll
    api-ms-win-core-errorhandling-l1-1-0.dll
    api-ms-win-core-processthreads-l1-1-0.dll
    api-ms-win-core-processenvironment-l1-1-0.dll
    api-ms-win-core-synch-l1-1-0.dll
    api-ms-win-core-heap-l2-1-0.dll
    api-ms-win-core-sysinfo-l1-1-0.dll
    api-ms-win-core-handle-l1-1-0.dll
    api-ms-win-core-libraryloader-l1-2-0.dll
    api-ms-win-core-string-l1-1-0.dll
    api-ms-win-core-heap-l1-1-0.dll
    USER32.dll
    msvcrt.dll
    ntdll.dll
    api-ms-win-core-debug-l1-1-0.dll
    api-ms-win-security-base-l1-1-0.dll
    api-ms-win-security-sddl-l1-1-0.dll
    api-ms-win-core-synch-l1-2-0.dll
    api-ms-win-core-profile-l1-1-0.dll

  Section contains the following imports:

    api-ms-win-core-file-l1-1-0.dll
                40A028 Import Address Table
                40A3A0 Import Name Table
                     0 time date stamp
                     0 Index of first forwarder reference

                    3 CreateDirectoryW
                    1 CompareFileTime
                   5B WriteFile
                   55 SetFilePointer
                    6 CreateFileW
                   2B GetFileAttributesExW

    api-ms-win-core-registry-l1-1-0.dll
                40A0C4 Import Address Table
                40A43C Import Name Table
                     0 time date stamp
                     0 Index of first forwarder reference

                   25 RegQueryValueExW
                    0 RegCloseKey
                   1C RegOpenCurrentUser
                   1E RegOpenKeyExW
                   21 RegQueryInfoKeyW
                   2E RegSetValueExW

    api-ms-win-core-errorhandling-l1-1-0.dll
                40A014 Import Address Table
                40A38C Import Name Table
                     0 time date stamp
                     0 Index of first forwarder reference

                   11 UnhandledExceptionFilter
                    F SetUnhandledExceptionFilter
                    5 GetLastError
                    D SetLastError

    api-ms-win-core-processthreads-l1-1-0.dll
                40A08C Import Address Table
                40A404 Import Name Table
                     0 time date stamp
                     0 Index of first forwarder reference

                    3 CreateProcessW
                   33 OpenThreadToken
                   13 GetExitCodeProcess
                   20 GetStartupInfoW
                   11 GetCurrentThreadId
                    C GetCurrentProcess
                   4A SetThreadToken
                    D GetCurrentProcessId
                   10 GetCurrentThread
                   4D TerminateProcess
                   31 OpenProcessToken

    api-ms-win-core-processenvironment-l1-1-0.dll
                40A078 Import Address Table
                40A3F0 Import Name Table
                     0 time date stamp
                     0 Index of first forwarder reference

                   12 SetCurrentDirectoryW
                   15 SetEnvironmentVariableW
                    1 ExpandEnvironmentStringsW
                    B GetEnvironmentVariableW

    api-ms-win-core-synch-l1-1-0.dll
                40A0E8 Import Address Table
                40A460 Import Name Table
                     0 time date stamp
                     0 Index of first forwarder reference

                   36 WaitForSingleObject

    api-ms-win-core-heap-l2-1-0.dll
                40A058 Import Address Table
                40A3D0 Import Name Table
                     0 time date stamp
                     0 Index of first forwarder reference

                    3 LocalFree
                    2 LocalAlloc

    api-ms-win-core-sysinfo-l1-1-0.dll
                40A0F8 Import Address Table
                40A470 Import Name Table
                     0 time date stamp
                     0 Index of first forwarder reference

                   12 GetSystemTime
                   15 GetSystemTimeAsFileTime
                    5 GetLocalTime
                   19 GetTickCount
                    F GetSystemDirectoryW

    api-ms-win-core-handle-l1-1-0.dll
                40A044 Import Address Table
                40A3BC Import Name Table
                     0 time date stamp
                     0 Index of first forwarder reference

                    0 CloseHandle
                    2 DuplicateHandle

    api-ms-win-core-libraryloader-l1-2-0.dll
                40A064 Import Address Table
                40A3DC Import Name Table
                     0 time date stamp
                     0 Index of first forwarder reference

                   15 GetProcAddress
                   14 GetModuleHandleW
                    C FreeLibrary
                   18 LoadLibraryExW

    api-ms-win-core-string-l1-1-0.dll
                40A0E0 Import Address Table
                40A458 Import Name Table
                     0 time date stamp
                     0 Index of first forwarder reference

                    2 CompareStringW

    api-ms-win-core-heap-l1-1-0.dll
                40A050 Import Address Table
                40A3C8 Import Name Table
                     0 time date stamp
                     0 Index of first forwarder reference

                    A HeapSetInformation

    USER32.dll
                40A000 Import Address Table
                40A378 Import Name Table
                     0 time date stamp
                     0 Index of first forwarder reference

                  3C0 UpdatePerUserSystemParameters
                  1BF GetSystemMetrics

    msvcrt.dll
                40A128 Import Address Table
                40A4A0 Import Name Table
                     0 time date stamp
                     0 Index of first forwarder reference

                   E2 __set_app_type
                   C9 __p__commode
                   6F _XcptFilter
                  50B memmove
                  509 memcpy
                   64 _CxxThrowException
                   37 ?what@exception@@UBEPBDXZ
                  4AE exit
                  173 _exit
                  124 _cexit
                   CE __p__fmode
                   10 ??1exception@@UAE@XZ
                    B ??0exception@@QAE@ABV0@@Z
                   E4 __setusermatherr
                    A ??0exception@@QAE@ABQBDH@Z
                  1E8 _initterm
                   F1 __wgetmainargs
                   35 ?terminate@@YAXXZ
                  260 _lock
                  3C4 _unlock
                    9 ??0exception@@QAE@ABQBD@Z
                  122 _callnewh
                  4FD malloc
                  309 _onexit
                  31A _purecall
                   13 ??3@YAXPAX@Z
                   11 ??1type_info@@UAE@XZ
                  137 _controlfp
                  405 _wcmdln
                  16A _except_handler4_common
                   79 __CxxFrameHandler3
                  50D memset
                   ED __wargv
                   93 __argc
                  246 _itow
                  3EC _vsnwprintf
                  111 _amsg_exit
                   9D __dllonexit

    ntdll.dll
                40A1C4 Import Address Table
                40A53C Import Name Table
                     0 time date stamp
                     0 Index of first forwarder reference

                  325 RtlCopySid
                  4B0 RtlLengthSid

    api-ms-win-core-debug-l1-1-0.dll
                40A00C Import Address Table
                40A384 Import Name Table
                     0 time date stamp
                     0 Index of first forwarder reference

                    7 OutputDebugStringW

    api-ms-win-security-base-l1-1-0.dll
                40A110 Import Address Table
                40A488 Import Name Table
                     0 time date stamp
                     0 Index of first forwarder reference

                   2C EqualSid
                   42 GetTokenInformation
                   45 ImpersonateLoggedOnUser

    api-ms-win-security-sddl-l1-1-0.dll
                40A120 Import Address Table
                40A498 Import Name Table
                     0 time date stamp
                     0 Index of first forwarder reference

                    1 ConvertSidToStringSidW

    api-ms-win-core-synch-l1-2-0.dll
                40A0F0 Import Address Table
                40A468 Import Name Table
                     0 time date stamp
                     0 Index of first forwarder reference

                   2D Sleep

    api-ms-win-core-profile-l1-1-0.dll
                40A0BC Import Address Table
                40A434 Import Name Table
                     0 time date stamp
                     0 Index of first forwarder reference

                    0 QueryPerformanceCounter

  Summary

        2000 .data
        1000 .idata
        1000 .reloc
        1000 .rsrc
        7000 .text
