Microsoft (R) COFF/PE Dumper Version 14.29.30137.0
Copyright (C) Microsoft Corporation.  All rights reserved.


Dump of file C:\Windows\SysWOW64\AcWinRT.dll

File Type: DLL

  Section contains the following exports for AcWinRT.dll

    00000000 characteristics
    D342C0C3 time date stamp
        0.00 version
           1 ordinal base
           2 number of functions
           2 number of names

    ordinal hint RVA      name

          1    0 000035F0 GetHookAPIs
          2    1 000036B0 NotifyShims

  Image has the following dependencies:

    api-ms-win-core-crt-l1-1-0.dll
    api-ms-win-core-crt-l2-1-0.dll
    MMDevAPI.DLL
    ntdll.dll
    api-ms-win-core-string-l1-1-0.dll
    api-ms-win-core-com-l1-1-0.dll
    api-ms-win-core-quirks-l1-1-0.dll
    api-ms-win-core-winrt-string-l1-1-0.dll
    api-ms-win-core-heap-l2-1-0.dll
    api-ms-win-core-libraryloader-l1-2-1.dll
    api-ms-win-core-libraryloader-l1-2-0.dll
    api-ms-win-core-synch-l1-2-0.dll
    api-ms-win-core-sysinfo-l1-1-0.dll
    api-ms-win-core-processenvironment-l1-1-0.dll
    api-ms-win-core-errorhandling-l1-1-0.dll
    api-ms-win-core-file-l1-1-0.dll
    api-ms-win-core-heap-l1-1-0.dll
    api-ms-win-core-processthreads-l1-1-0.dll
    api-ms-win-core-profile-l1-1-0.dll
    api-ms-win-core-util-l1-1-0.dll
    APPHELP.dll

  Section contains the following imports:

    api-ms-win-core-crt-l1-1-0.dll
              1000803C Import Address Table
              10008340 Import Name Table
                     0 time date stamp
                     0 Index of first forwarder reference

                   35 memcpy
                    3 _except_handler4_common
                   37 memmove
                   5F wcsrchr
                    F _stricmp
                   1C _wcsnicmp
                   5D wcsnlen
                   1A _wcsicmp

    api-ms-win-core-crt-l2-1-0.dll
              10008060 Import Address Table
              10008364 Import Name Table
                     0 time date stamp
                     0 Index of first forwarder reference

                    6 _initterm
                    7 _initterm_e

    MMDevAPI.DLL
              1000801C Import Address Table
              10008320 Import Name Table
                     0 time date stamp
                     0 Index of first forwarder reference

                      Ordinal     5

    ntdll.dll
              1000813C Import Address Table
              10008440 Import Name Table
                     0 time date stamp
                     0 Index of first forwarder reference

                   22 DbgPrint
                  1E5 NtQueryKey

    api-ms-win-core-string-l1-1-0.dll
              100080EC Import Address Table
              100083F0 Import Name Table
                     0 time date stamp
                     0 Index of first forwarder reference

                    6 MultiByteToWideChar
                    7 WideCharToMultiByte
                    1 CompareStringOrdinal

    api-ms-win-core-com-l1-1-0.dll
              10008024 Import Address Table
              10008328 Import Name Table
                     0 time date stamp
                     0 Index of first forwarder reference

                   28 CoInitializeEx
                    9 CoCreateInstance
                   44 CoUninitialize
                   41 CoTaskMemFree
                   4E PropVariantClear

    api-ms-win-core-quirks-l1-1-0.dll
              100080E4 Import Address Table
              100083E8 Import Name Table
                     0 time date stamp
                     0 Index of first forwarder reference

                    2 QuirkIsEnabled

    api-ms-win-core-winrt-string-l1-1-0.dll
              10008124 Import Address Table
              10008428 Import Name Table
                     0 time date stamp
                     0 Index of first forwarder reference

                    B WindowsGetStringLen
                    C WindowsGetStringRawBuffer
                    7 WindowsCreateStringReference
                    8 WindowsDeleteString
                    6 WindowsCreateString

    api-ms-win-core-heap-l2-1-0.dll
              10008098 Import Address Table
              1000839C Import Name Table
                     0 time date stamp
                     0 Index of first forwarder reference

                    2 LocalAlloc
                    3 LocalFree

    api-ms-win-core-libraryloader-l1-2-1.dll
              100080B8 Import Address Table
              100083BC Import Name Table
                     0 time date stamp
                     0 Index of first forwarder reference

                   19 LoadLibraryW

    api-ms-win-core-libraryloader-l1-2-0.dll
              100080A4 Import Address Table
              100083A8 Import Name Table
                     0 time date stamp
                     0 Index of first forwarder reference

                   10 GetModuleFileNameW
                    1 DisableThreadLibraryCalls
                    0 AddDllDirectory
                   15 GetProcAddress

    api-ms-win-core-synch-l1-2-0.dll
              100080FC Import Address Table
              10008400 Import Name Table
                     0 time date stamp
                     0 Index of first forwarder reference

                   15 InitOnceExecuteOnce

    api-ms-win-core-sysinfo-l1-1-0.dll
              10008104 Import Address Table
              10008408 Import Name Table
                     0 time date stamp
                     0 Index of first forwarder reference

                   15 GetSystemTimeAsFileTime
                   19 GetTickCount
                   1F GetWindowsDirectoryW
                   11 GetSystemInfo

    api-ms-win-core-processenvironment-l1-1-0.dll
              100080C0 Import Address Table
              100083C4 Import Name Table
                     0 time date stamp
                     0 Index of first forwarder reference

                    B GetEnvironmentVariableW

    api-ms-win-core-errorhandling-l1-1-0.dll
              1000806C Import Address Table
              10008370 Import Name Table
                     0 time date stamp
                     0 Index of first forwarder reference

                   11 UnhandledExceptionFilter
                    5 GetLastError
                    F SetUnhandledExceptionFilter
                    D SetLastError

    api-ms-win-core-file-l1-1-0.dll
              10008080 Import Address Table
              10008384 Import Name Table
                     0 time date stamp
                     0 Index of first forwarder reference

                   2C GetFileAttributesW

    api-ms-win-core-heap-l1-1-0.dll
              10008088 Import Address Table
              1000838C Import Name Table
                     0 time date stamp
                     0 Index of first forwarder reference

                    0 GetProcessHeap
                    6 HeapFree
                    2 HeapAlloc

    api-ms-win-core-processthreads-l1-1-0.dll
              100080C8 Import Address Table
              100083CC Import Name Table
                     0 time date stamp
                     0 Index of first forwarder reference

                    D GetCurrentProcessId
                    C GetCurrentProcess
                   11 GetCurrentThreadId
                   4D TerminateProcess

    api-ms-win-core-profile-l1-1-0.dll
              100080DC Import Address Table
              100083E0 Import Name Table
                     0 time date stamp
                     0 Index of first forwarder reference

                    0 QueryPerformanceCounter

    api-ms-win-core-util-l1-1-0.dll
              10008118 Import Address Table
              1000841C Import Name Table
                     0 time date stamp
                     0 Index of first forwarder reference

                    4 EncodePointer
                    1 DecodePointer

    APPHELP.dll
              10008000 Import Address Table
              10008304 Import Name Table
                     0 time date stamp
                     0 Index of first forwarder reference

                    4 SE_GetShimId
                    3 SE_COM_Lookup
                    7 SE_WINRT_HookObject
                    6 SE_WINRT_AddHook
                    2 SE_COM_AddServer
                    1 SE_COM_AddHook

  Summary

        1000 .data
        1000 .idata
        1000 .reloc
        1000 .rsrc
        6000 .text
