Microsoft (R) COFF/PE Dumper Version 14.29.30137.0
Copyright (C) Microsoft Corporation.  All rights reserved.


Dump of file C:\Windows\SysWOW64\DDACLSys.dll

File Type: DLL

  Section contains the following exports for DDACLSys.DLL

    00000000 characteristics
    BB5AB946 time date stamp
        0.00 version
           1 ordinal base
           2 number of functions
           2 number of names

    ordinal hint RVA      name

          1    0 00002BD0 DDACLSys_Offline_Specialize
          2    1 00002BB0 DDACLSys_Specialize

  Image has the following dependencies:

    msvcrt.dll
    api-ms-win-core-file-l1-1-0.dll
    api-ms-win-core-errorhandling-l1-1-0.dll
    api-ms-win-core-handle-l1-1-0.dll
    api-ms-win-core-sysinfo-l1-1-0.dll
    api-ms-win-security-sddl-l1-1-0.dll
    api-ms-win-core-heap-l2-1-0.dll
    api-ms-win-security-base-l1-1-0.dll
    api-ms-win-core-io-l1-1-0.dll
    api-ms-win-core-registry-l1-1-0.dll
    api-ms-win-core-file-l1-2-0.dll
    api-ms-win-core-libraryloader-l1-2-0.dll
    api-ms-win-core-synch-l1-2-0.dll
    api-ms-win-core-processthreads-l1-1-0.dll
    api-ms-win-core-profile-l1-1-0.dll
    ADVAPI32.dll
    SHLWAPI.dll

  Section contains the following imports:

    msvcrt.dll
              100050E0 Import Address Table
              10005368 Import Name Table
                     0 time date stamp
                     0 Index of first forwarder reference

                  16A _except_handler4_common
                  111 _amsg_exit
                  509 memcpy
                   6F _XcptFilter
                  122 _callnewh
                  4FD malloc
                  4C5 free
                  56F wcscat_s
                  574 wcscpy_s
                  40D _wcsicmp
                  3E6 _vsnprintf
                  3EC _vsnwprintf
                  1E8 _initterm
                  50D memset

    api-ms-win-core-file-l1-1-0.dll
              10005024 Import Address Table
              100052AC Import Name Table
                     0 time date stamp
                     0 Index of first forwarder reference

                   2C GetFileAttributesW
                    6 CreateFileW
                   2F GetFileSizeEx
                   16 FindFirstVolumeW
                   1C FindNextVolumeW
                   5B WriteFile
                   1D FindVolumeClose
                   41 GetVolumeInformationW
                   55 SetFilePointer
                   28 GetDriveTypeW
                   4E SetEndOfFile

    api-ms-win-core-errorhandling-l1-1-0.dll
              10005014 Import Address Table
              1000529C Import Name Table
                     0 time date stamp
                     0 Index of first forwarder reference

                    F SetUnhandledExceptionFilter
                   11 UnhandledExceptionFilter
                    5 GetLastError

    api-ms-win-core-handle-l1-1-0.dll
              1000505C Import Address Table
              100052E4 Import Name Table
                     0 time date stamp
                     0 Index of first forwarder reference

                    0 CloseHandle

    api-ms-win-core-sysinfo-l1-1-0.dll
              100050B4 Import Address Table
              1000533C Import Name Table
                     0 time date stamp
                     0 Index of first forwarder reference

                   1F GetWindowsDirectoryW
                   19 GetTickCount
                   15 GetSystemTimeAsFileTime
                    5 GetLocalTime

    api-ms-win-security-sddl-l1-1-0.dll
              100050D4 Import Address Table
              1000535C Import Name Table
                     0 time date stamp
                     0 Index of first forwarder reference

                    2 ConvertStringSecurityDescriptorToSecurityDescriptorW
                    0 ConvertSecurityDescriptorToStringSecurityDescriptorW

    api-ms-win-core-heap-l2-1-0.dll
              10005064 Import Address Table
              100052EC Import Name Table
                     0 time date stamp
                     0 Index of first forwarder reference

                    2 LocalAlloc
                    3 LocalFree

    api-ms-win-security-base-l1-1-0.dll
              100050C8 Import Address Table
              10005350 Import Name Table
                     0 time date stamp
                     0 Index of first forwarder reference

                   37 GetSecurityDescriptorControl
                   38 GetSecurityDescriptorDacl

    api-ms-win-core-io-l1-1-0.dll
              10005070 Import Address Table
              100052F8 Import Name Table
                     0 time date stamp
                     0 Index of first forwarder reference

                    4 DeviceIoControl

    api-ms-win-core-registry-l1-1-0.dll
              1000509C Import Address Table
              10005324 Import Name Table
                     0 time date stamp
                     0 Index of first forwarder reference

                    0 RegCloseKey
                   1E RegOpenKeyExW
                   25 RegQueryValueExW

    api-ms-win-core-file-l1-2-0.dll
              10005054 Import Address Table
              100052DC Import Name Table
                     0 time date stamp
                     0 Index of first forwarder reference

                   44 GetVolumePathNamesForVolumeNameW

    api-ms-win-core-libraryloader-l1-2-0.dll
              10005078 Import Address Table
              10005300 Import Name Table
                     0 time date stamp
                     0 Index of first forwarder reference

                    1 DisableThreadLibraryCalls

    api-ms-win-core-synch-l1-2-0.dll
              100050AC Import Address Table
              10005334 Import Name Table
                     0 time date stamp
                     0 Index of first forwarder reference

                   2D Sleep

    api-ms-win-core-processthreads-l1-1-0.dll
              10005080 Import Address Table
              10005308 Import Name Table
                     0 time date stamp
                     0 Index of first forwarder reference

                   11 GetCurrentThreadId
                    C GetCurrentProcess
                   4D TerminateProcess
                    D GetCurrentProcessId

    api-ms-win-core-profile-l1-1-0.dll
              10005094 Import Address Table
              1000531C Import Name Table
                     0 time date stamp
                     0 Index of first forwarder reference

                    0 QueryPerformanceCounter

    ADVAPI32.dll
              10005000 Import Address Table
              10005288 Import Name Table
                     0 time date stamp
                     0 Index of first forwarder reference

                  2E3 SetNamedSecurityInfoW
                  157 GetNamedSecurityInfoW

    SHLWAPI.dll
              1000500C Import Address Table
              10005294 Import Name Table
                     0 time date stamp
                     0 Index of first forwarder reference

                      Ordinal   437

  Summary

        1000 .data
        1000 .idata
        1000 .reloc
        1000 .rsrc
        3000 .text
