Microsoft (R) COFF/PE Dumper Version 14.29.30137.0
Copyright (C) Microsoft Corporation.  All rights reserved.


Dump of file C:\Windows\SysWOW64\FwRemoteSvr.dll

File Type: DLL

  Image has the following delay load dependencies:

    api-ms-win-security-sddl-l1-1-0.dll

  Section contains the following exports for FwRemoteSvr.DLL

    00000000 characteristics
    6417D653 time date stamp
        0.00 version
           1 ordinal base
           2 number of functions
           2 number of names

    ordinal hint RVA      name

          1    0 00005030 FwRpcAPIsInitialize
          2    1 00005140 FwRpcAPIsShutdown

  Section contains the following delay load imports:

    api-ms-win-security-sddl-l1-1-0.dll
              00000001 Characteristics
              1000D364 Address of HMODULE
              1000F000 Import Address Table
              1000C61C Import Name Table
              1000C65C Bound Import Name Table
              00000000 Unload Import Name Table
                     0 time date stamp

          1000C513               2 ConvertStringSecurityDescriptorToSecurityDescriptorW

  Image has the following dependencies:

    fwbase.dll
    msvcrt.dll
    api-ms-win-eventing-classicprovider-l1-1-0.dll
    api-ms-win-core-errorhandling-l1-1-0.dll
    api-ms-win-core-heap-l2-1-0.dll
    RPCRT4.dll
    api-ms-win-core-processthreads-l1-1-0.dll
    api-ms-win-security-base-l1-1-0.dll
    api-ms-win-core-synch-l1-2-0.dll
    api-ms-win-core-profile-l1-1-0.dll
    api-ms-win-core-sysinfo-l1-1-0.dll
    FirewallAPI.dll
    api-ms-win-core-delayload-l1-1-1.dll
    api-ms-win-core-delayload-l1-1-0.dll

  Section contains the following imports:

    fwbase.dll
              1000E174 Import Address Table
              1000E454 Import Name Table
                     0 time date stamp
                     0 Index of first forwarder reference

                   1C FwCloseHandle
                   8F FwStringCopy
                   88 FwSizeTMultiply
                   2A FwFree
                    4 FwAlloc
                   3F FwHResultToWindowsError

    msvcrt.dll
              1000E190 Import Address Table
              1000E470 Import Name Table
                     0 time date stamp
                     0 Index of first forwarder reference

                  16A _except_handler4_common
                   6F _XcptFilter
                  50D memset
                  1E8 _initterm
                  4FD malloc
                  4C5 free
                  111 _amsg_exit

    api-ms-win-eventing-classicprovider-l1-1-0.dll
              1000E164 Import Address Table
              1000E444 Import Name Table
                     0 time date stamp
                     0 Index of first forwarder reference

                    5 TraceMessage

    api-ms-win-core-errorhandling-l1-1-0.dll
              1000E114 Import Address Table
              1000E3F4 Import Name Table
                     0 time date stamp
                     0 Index of first forwarder reference

                   11 UnhandledExceptionFilter
                    5 GetLastError
                    F SetUnhandledExceptionFilter

    api-ms-win-core-heap-l2-1-0.dll
              1000E124 Import Address Table
              1000E404 Import Name Table
                     0 time date stamp
                     0 Index of first forwarder reference

                    A LocalFree

    RPCRT4.dll
              1000E0BC Import Address Table
              1000E39C Import Name Table
                     0 time date stamp
                     0 Index of first forwarder reference

                  19F RpcImpersonateClient
                  1C3 RpcRevertToSelf
                  12B NdrServerCall2
                  1CC RpcServerInqDefaultPrincNameW
                  1D6 RpcServerRegisterAuthInfoW
                  20D RpcStringFreeW
                  1EF RpcServerUseProtseqW
                  1D9 RpcServerRegisterIf3
                  1C7 RpcServerInqBindings
                  173 RpcBindingInqAuthClientW
                  20B RpcStringBindingParseW
                  183 RpcBindingToStringBindingW
                   25 I_RpcBindingIsClientLocal
                  1DE RpcServerUnregisterIfEx
                  185 RpcBindingVectorFree
                  190 RpcEpUnregister
                  18E RpcEpRegisterW

    api-ms-win-core-processthreads-l1-1-0.dll
              1000E12C Import Address Table
              1000E40C Import Name Table
                     0 time date stamp
                     0 Index of first forwarder reference

                    C GetCurrentProcess
                   4D TerminateProcess
                    3 OpenThreadToken
                   10 GetCurrentThread
                   11 GetCurrentThreadId
                    D GetCurrentProcessId

    api-ms-win-security-base-l1-1-0.dll
              1000E16C Import Address Table
              1000E44C Import Name Table
                     0 time date stamp
                     0 Index of first forwarder reference

                    0 AccessCheck

    api-ms-win-core-synch-l1-2-0.dll
              1000E150 Import Address Table
              1000E430 Import Name Table
                     0 time date stamp
                     0 Index of first forwarder reference

                   2D Sleep

    api-ms-win-core-profile-l1-1-0.dll
              1000E148 Import Address Table
              1000E428 Import Name Table
                     0 time date stamp
                     0 Index of first forwarder reference

                    0 QueryPerformanceCounter

    api-ms-win-core-sysinfo-l1-1-0.dll
              1000E158 Import Address Table
              1000E438 Import Name Table
                     0 time date stamp
                     0 Index of first forwarder reference

                   19 GetTickCount
                   15 GetSystemTimeAsFileTime

    FirewallAPI.dll
              1000E000 Import Address Table
              1000E2E0 Import Name Table
                     0 time date stamp
                     0 Index of first forwarder reference

                   16 FWDeleteAllMainModeRules
                   1B FWDeleteMainModeRule
                   63 FWSetMainModeRule
                    8 FWAddMainModeRule
                   1D FWDeletePhase2SAs
                   1C FWDeletePhase1SAs
                   13 FWDeleteAllConnectionSecurityRules
                   18 FWDeleteConnectionSecurityRule
                   5E FWSetConnectionSecurityRule
                    5 FWAddConnectionSecurityRule
                    D FWClosePolicyStore
                   4E FWOpenPolicyStore
                   20 FWEnumAdapters
                   26 FWEnumNetworks
                   51 FWQueryCryptoSets
                   4F FWQueryAuthenticationSets
                   54 FWQueryMainModeRules
                   50 FWQueryConnectionSecurityRules
                   28 FWEnumPhase2SAs
                   61 FWSetGlobalConfig
                   44 FWGetGlobalConfig2
                   43 FWGetGlobalConfig
                   29 FWEnumProducts
                   5D FWSetConfig
                   52 FWQueryFirewallRules
                   42 FWGetConfig2
                   41 FWGetConfig
                   60 FWSetFirewallRule
                    7 FWAddFirewallRule
                   15 FWDeleteAllFirewallRules
                   1A FWDeleteFirewallRule
                   24 FWEnumFirewallRules
                   58 FWRestoreDefaults
                    4 FWAddAuthenticationSet
                   17 FWDeleteAuthenticationSet
                   5C FWSetAuthenticationSet
                   12 FWDeleteAllAuthenticationSets
                   21 FWEnumAuthenticationSets
                   25 FWEnumMainModeRules
                    6 FWAddCryptoSet
                   5F FWSetCryptoSet
                   27 FWEnumPhase1SAs
                   23 FWEnumCryptoSets
                   14 FWDeleteAllCryptoSets
                   19 FWDeleteCryptoSet
                   22 FWEnumConnectionSecurityRules

    api-ms-win-core-delayload-l1-1-1.dll
              1000E10C Import Address Table
              1000E3EC Import Name Table
                     0 time date stamp
                     0 Index of first forwarder reference

                    1 ResolveDelayLoadedAPI

    api-ms-win-core-delayload-l1-1-0.dll
              1000E104 Import Address Table
              1000E3E4 Import Name Table
                     0 time date stamp
                     0 Index of first forwarder reference

                    0 DelayLoadFailureHook

  Summary

        1000 .data
        1000 .didat
        1000 .idata
        1000 .reloc
        1000 .rsrc
        C000 .text
