Microsoft (R) COFF/PE Dumper Version 14.29.30137.0
Copyright (C) Microsoft Corporation.  All rights reserved.


Dump of file C:\Windows\SysWOW64\getuname.dll

File Type: DLL

  Section contains the following exports for GetUName.dll

    00000000 characteristics
    3393C063 time date stamp
        0.00 version
           1 ordinal base
           1 number of functions
           1 number of names

    ordinal hint RVA      name

          1    0 00001440 GetUName

  Image has the following dependencies:

    msvcrt.dll
    api-ms-win-core-libraryloader-l1-2-0.dll
    api-ms-win-core-synch-l1-2-0.dll
    api-ms-win-core-profile-l1-1-0.dll
    api-ms-win-core-processthreads-l1-1-0.dll
    api-ms-win-core-sysinfo-l1-1-0.dll
    api-ms-win-core-errorhandling-l1-1-0.dll

  Section contains the following imports:

    msvcrt.dll
              74B03044 Import Address Table
              74B03148 Import Name Table
                     0 time date stamp
                     0 Index of first forwarder reference

                  16A _except_handler4_common
                  1E8 _initterm
                  4FD malloc
                  4C5 free
                  111 _amsg_exit
                   6F _XcptFilter

    api-ms-win-core-libraryloader-l1-2-0.dll
              74B0300C Import Address Table
              74B03110 Import Name Table
                     0 time date stamp
                     0 Index of first forwarder reference

                   1C LoadStringW

    api-ms-win-core-synch-l1-2-0.dll
              74B03030 Import Address Table
              74B03134 Import Name Table
                     0 time date stamp
                     0 Index of first forwarder reference

                   2D Sleep

    api-ms-win-core-profile-l1-1-0.dll
              74B03028 Import Address Table
              74B0312C Import Name Table
                     0 time date stamp
                     0 Index of first forwarder reference

                    0 QueryPerformanceCounter

    api-ms-win-core-processthreads-l1-1-0.dll
              74B03014 Import Address Table
              74B03118 Import Name Table
                     0 time date stamp
                     0 Index of first forwarder reference

                   11 GetCurrentThreadId
                    D GetCurrentProcessId
                   4D TerminateProcess
                    C GetCurrentProcess

    api-ms-win-core-sysinfo-l1-1-0.dll
              74B03038 Import Address Table
              74B0313C Import Name Table
                     0 time date stamp
                     0 Index of first forwarder reference

                   19 GetTickCount
                   15 GetSystemTimeAsFileTime

    api-ms-win-core-errorhandling-l1-1-0.dll
              74B03000 Import Address Table
              74B03104 Import Name Table
                     0 time date stamp
                     0 Index of first forwarder reference

                   11 UnhandledExceptionFilter
                    F SetUnhandledExceptionFilter

  Summary

        1000 .data
        1000 .idata
        1000 .reloc
        1000 .rsrc
        1000 .text
