Microsoft (R) COFF/PE Dumper Version 14.29.30137.0
Copyright (C) Microsoft Corporation.  All rights reserved.


Dump of file C:\Windows\SysWOW64\mciseq.dll

File Type: DLL

  Section contains the following exports for MCISEQ.dll

    00000000 characteristics
    8A454B5B time date stamp
        0.00 version
           1 ordinal base
           1 number of functions
           1 number of names

    ordinal hint RVA      name

          1    0 000015C0 DriverProc

  Image has the following dependencies:

    ntdll.dll
    api-ms-win-core-heap-l2-1-0.dll
    api-ms-win-core-libraryloader-l1-2-0.dll
    api-ms-win-mm-time-l1-1-0.dll
    api-ms-win-core-largeinteger-l1-1-0.dll
    api-ms-win-core-synch-l1-1-0.dll
    api-ms-win-core-synch-l1-2-0.dll
    api-ms-win-core-handle-l1-1-0.dll
    api-ms-win-core-errorhandling-l1-1-0.dll
    api-ms-win-core-processthreads-l1-1-0.dll
    api-ms-win-core-profile-l1-1-0.dll
    api-ms-win-core-sysinfo-l1-1-0.dll
    USER32.dll
    WINMM.dll

  Section contains the following imports:

    ntdll.dll
              50308114 Import Address Table
              50308360 Import Name Table
                     0 time date stamp
                     0 Index of first forwarder reference

                  8ED memset

    api-ms-win-core-heap-l2-1-0.dll
              5030808C Import Address Table
              503082D8 Import Name Table
                     0 time date stamp
                     0 Index of first forwarder reference

                    2 GlobalFree
                    B LocalLock
                    A LocalFree
                    0 GlobalAlloc
                    8 LocalAlloc

    api-ms-win-core-libraryloader-l1-2-0.dll
              503080AC Import Address Table
              503082F8 Import Name Table
                     0 time date stamp
                     0 Index of first forwarder reference

                   1C LoadStringW
                    1 DisableThreadLibraryCalls

    api-ms-win-mm-time-l1-1-0.dll
              50308100 Import Address Table
              5030834C Import Name Table
                     0 time date stamp
                     0 Index of first forwarder reference

                    4 timeGetTime
                    1 timeEndPeriod
                    2 timeGetDevCaps
                    0 timeBeginPeriod

    api-ms-win-core-largeinteger-l1-1-0.dll
              503080A4 Import Address Table
              503082F0 Import Name Table
                     0 time date stamp
                     0 Index of first forwarder reference

                   45 MulDiv

    api-ms-win-core-synch-l1-1-0.dll
              503080D4 Import Address Table
              50308320 Import Name Table
                     0 time date stamp
                     0 Index of first forwarder reference

                   18 InitializeCriticalSection
                   1D LeaveCriticalSection
                   11 EnterCriticalSection
                   36 WaitForSingleObject
                    F DeleteCriticalSection

    api-ms-win-core-synch-l1-2-0.dll
              503080EC Import Address Table
              50308338 Import Name Table
                     0 time date stamp
                     0 Index of first forwarder reference

                   2D Sleep

    api-ms-win-core-handle-l1-1-0.dll
              50308084 Import Address Table
              503082D0 Import Name Table
                     0 time date stamp
                     0 Index of first forwarder reference

                    0 CloseHandle

    api-ms-win-core-errorhandling-l1-1-0.dll
              50308078 Import Address Table
              503082C4 Import Name Table
                     0 time date stamp
                     0 Index of first forwarder reference

                   11 UnhandledExceptionFilter
                    F SetUnhandledExceptionFilter

    api-ms-win-core-processthreads-l1-1-0.dll
              503080B8 Import Address Table
              50308304 Import Name Table
                     0 time date stamp
                     0 Index of first forwarder reference

                   11 GetCurrentThreadId
                    D GetCurrentProcessId
                    C GetCurrentProcess
                   4D TerminateProcess

    api-ms-win-core-profile-l1-1-0.dll
              503080CC Import Address Table
              50308318 Import Name Table
                     0 time date stamp
                     0 Index of first forwarder reference

                    0 QueryPerformanceCounter

    api-ms-win-core-sysinfo-l1-1-0.dll
              503080F4 Import Address Table
              50308340 Import Name Table
                     0 time date stamp
                     0 Index of first forwarder reference

                   19 GetTickCount
                   15 GetSystemTimeAsFileTime

    USER32.dll
              50308000 Import Address Table
              5030824C Import Name Table
                     0 time date stamp
                     0 Index of first forwarder reference

                  142 GetDesktopWindow
                   BC DispatchMessageW
                  2B6 PostThreadMessageW
                  184 GetMessageW

    WINMM.dll
              50308014 Import Address Table
              50308260 Import Name Table
                     0 time date stamp
                     0 Index of first forwarder reference

                   57 midiOutShortMsg
                   48 midiOutCachePatches
                   58 midiOutUnprepareHeader
                   53 midiOutOpen
                   54 midiOutPrepareHeader
                   47 midiOutCacheDrumPatches
                   51 midiOutLongMsg
                   76 mmioAscend
                   77 mmioClose
                   83 mmioSeek
                   2A mciGetDriverData
                   21 mciDriverNotify
                   80 mmioRead
                   7F mmioOpenW
                   49 midiOutClose
                    1 DefDriverProc
                   95 timeKillEvent
                   79 mmioDescend
                   70 mmGetCurrentTask
                   72 mmTaskCreate
                   4F midiOutGetNumDevs
                   33 mciSetDriverData
                   22 mciDriverYield
                   96 timeSetEvent

  Summary

        2000 .data
        1000 .idata
        1000 .reloc
        1000 .rsrc
        5000 .text
