Microsoft (R) COFF/PE Dumper Version 14.29.30137.0
Copyright (C) Microsoft Corporation.  All rights reserved.


Dump of file C:\Windows\SysWOW64\ntlanui2.dll

File Type: DLL

  Section contains the following exports for netobjs.dll

    00000000 characteristics
    3D0EF91B time date stamp
        0.00 version
           1 ordinal base
           2 number of functions
           2 number of names

    ordinal hint RVA      name

          1    0 00001930 DllCanUnloadNow
          2    1 00001950 DllGetClassObject

  Image has the following dependencies:

    msvcrt.dll
    api-ms-win-core-libraryloader-l1-2-0.dll
    api-ms-win-core-libraryloader-l1-2-1.dll
    srvcli.dll
    netutils.dll
    wkscli.dll
    api-ms-win-core-localization-l1-2-0.dll
    api-ms-win-core-synch-l1-2-0.dll
    api-ms-win-core-errorhandling-l1-1-0.dll
    api-ms-win-core-processthreads-l1-1-0.dll
    api-ms-win-core-profile-l1-1-0.dll
    api-ms-win-core-sysinfo-l1-1-0.dll
    ADVAPI32.dll
    COMCTL32.dll
    ntdll.dll
    ole32.dll
    USER32.dll

  Section contains the following imports:

    msvcrt.dll
              514840A0 Import Address Table
              51484308 Import Name Table
                     0 time date stamp
                     0 Index of first forwarder reference

                  509 memcpy
                  570 wcschr
                  16A _except_handler4_common
                  1E8 _initterm
                  111 _amsg_exit
                   6F _XcptFilter
                  122 _callnewh
                  4FD malloc
                  4C5 free
                  3EC _vsnwprintf
                  50D memset

    api-ms-win-core-libraryloader-l1-2-0.dll
              51484050 Import Address Table
              514842B8 Import Name Table
                     0 time date stamp
                     0 Index of first forwarder reference

                    1 DisableThreadLibraryCalls
                   15 GetProcAddress
                   1C LoadStringW

    api-ms-win-core-libraryloader-l1-2-1.dll
              51484060 Import Address Table
              514842C8 Import Name Table
                     0 time date stamp
                     0 Index of first forwarder reference

                   19 LoadLibraryW

    srvcli.dll
              514840EC Import Address Table
              51484354 Import Name Table
                     0 time date stamp
                     0 Index of first forwarder reference

                   20 NetServerGetInfo

    netutils.dll
              514840D0 Import Address Table
              51484338 Import Name Table
                     0 time date stamp
                     0 Index of first forwarder reference

                    1 NetApiBufferFree
                    0 NetApiBufferAllocate

    wkscli.dll
              514840F4 Import Address Table
              5148435C Import Name Table
                     0 time date stamp
                     0 Index of first forwarder reference

                    E NetWkstaGetInfo

    api-ms-win-core-localization-l1-2-0.dll
              51484068 Import Address Table
              514842D0 Import Name Table
                     0 time date stamp
                     0 Index of first forwarder reference

                    9 FormatMessageW

    api-ms-win-core-synch-l1-2-0.dll
              5148408C Import Address Table
              514842F4 Import Name Table
                     0 time date stamp
                     0 Index of first forwarder reference

                   2D Sleep

    api-ms-win-core-errorhandling-l1-1-0.dll
              51484044 Import Address Table
              514842AC Import Name Table
                     0 time date stamp
                     0 Index of first forwarder reference

                   11 UnhandledExceptionFilter
                    F SetUnhandledExceptionFilter

    api-ms-win-core-processthreads-l1-1-0.dll
              51484070 Import Address Table
              514842D8 Import Name Table
                     0 time date stamp
                     0 Index of first forwarder reference

                   11 GetCurrentThreadId
                    D GetCurrentProcessId
                   4D TerminateProcess
                    C GetCurrentProcess

    api-ms-win-core-profile-l1-1-0.dll
              51484084 Import Address Table
              514842EC Import Name Table
                     0 time date stamp
                     0 Index of first forwarder reference

                    0 QueryPerformanceCounter

    api-ms-win-core-sysinfo-l1-1-0.dll
              51484094 Import Address Table
              514842FC Import Name Table
                     0 time date stamp
                     0 Index of first forwarder reference

                   15 GetSystemTimeAsFileTime
                   19 GetTickCount

    ADVAPI32.dll
              51484000 Import Address Table
              51484268 Import Name Table
                     0 time date stamp
                     0 Index of first forwarder reference

                  1E0 LsaQueryInformationPolicy
                  1B5 LsaClose
                  1C3 LsaFreeMemory
                  1D7 LsaOpenPolicy

    COMCTL32.dll
              51484014 Import Address Table
              5148427C Import Name Table
                     0 time date stamp
                     0 Index of first forwarder reference

                      Ordinal    17
                    9 CreatePropertySheetPageW
                   31 DestroyPropertySheetPage

    ntdll.dll
              514840DC Import Address Table
              51484344 Import Name Table
                     0 time date stamp
                     0 Index of first forwarder reference

                  448 RtlInitUnicodeStringEx

    ole32.dll
              514840E4 Import Address Table
              5148434C Import Name Table
                     0 time date stamp
                     0 Index of first forwarder reference

                  19E ReleaseStgMedium

    USER32.dll
              51484024 Import Address Table
              5148428C Import Name Table
                     0 time date stamp
                     0 Index of first forwarder reference

                  2E3 RegisterClipboardFormatW
                  374 SetWindowLongW
                  24D LoadCursorW
                  1DF GetWindowLongW
                  333 SetDlgItemTextW
                  290 MessageBoxW
                  327 SetCursor

  Summary

        1000 .data
        1000 .idata
        1000 .reloc
        2000 .rsrc
        2000 .text
