Microsoft (R) COFF/PE Dumper Version 14.29.30137.0
Copyright (C) Microsoft Corporation.  All rights reserved.


Dump of file C:\Windows\System32\drivers\mskssrv.sys

File Type: EXECUTABLE IMAGE

  Image has the following dependencies:

    ntoskrnl.exe
    ks.sys

  Section contains the following imports:

    ntoskrnl.exe
             1C0006090 Import Address Table
             1C00062C8 Import Name Table
                     0 time date stamp
                     0 Index of first forwarder reference

                          A3 IofCompleteRequest
                         16B ZwClose
                         180 ZwSetValueKey
                         12E RtlCompareMemory
                          B3 KeInitializeMutex
                          C5 KeReleaseMutex
                          D8 KeWaitForSingleObject
                          FE ObReferenceObjectByPointer
                         188 _purecall
                          F4 MmUnlockPages
                          D0 KeSetEvent
                          EA MmMapLockedPagesSpecifyCache
                          F6 MmUnmapLockedPages
                          1C ExEventObjectType
                          67 IoGetCurrentProcess
                         17D ZwQueryValueKey
                         8E7 RtlValidSid
                         842 RtlLengthSid
                         AB6 ZwUpdateWnfStateData
                          5A DbgPrintEx
                         674 PsGetCurrentProcessId
                         697 PsGetProcessId
                         5D7 ObDuplicateObject
                         5E3 ObOpenObjectByPointer
                         4B2 KeStackAttachProcess
                         4C0 KeUnstackDetachProcess
                          52 IoCreateDevice
                          15 ExAllocatePoolWithTag
                          53 IoCreateFile
                          64 IoFreeMdl
                          1D ExFreePool
                          FD ObReferenceObjectByHandle
                          60 IoFileObjectType
                          4A IoAttachDeviceToDeviceStack
                          5C IoDeleteDevice
                          78 IoOpenDeviceInterfaceRegistryKey
                         147 RtlInitUnicodeString
                          47 IoAllocateMdl
                         101 ObfDereferenceObject
                          ED MmProbeAndLockPages
                          F9 NtClose
                         183 __C_specific_handler

    ks.sys
             1C0006000 Import Address Table
             1C0006238 Import Name Table
                     0 time date stamp
                     0 Index of first forwarder reference

                          C5 KsSetMajorFunctionHandler
                          36 KsDefaultForwardIrp
                          35 KsDefaultDispatchPower
                          5C KsFreeDeviceHeader
                          61 KsFreeObjectHeader
                          A9 KsQueryDevicePnpObject
                          20 KsAllocateObjectHeader
                          A6 KsPropertyHandler
                          DC KsUpdateCameraStreamingConsent
                          21 KsCacheMedium
                          80 KsIsCurrentProcessFrameServer
                          B1 KsReferenceSoftwareBusObject
                          C3 KsSetDevicePnpAndBaseObject
                          1C KsAllocateDeviceHeader
                          38 KsDereferenceSoftwareBusObject
                          D7 KsSynchronousIoControlDevice
                          34 KsDefaultDispatchPnp

  Summary

        1000 .data
        1000 .guids
        1000 .idata
        1000 .pdata
        1000 .rdata
        1000 .reloc
        1000 .rsrc
        2000 .text
        1000 GFIDS
        1000 INIT
        4000 PAGE
