Microsoft (R) COFF/PE Dumper Version 14.29.30137.0
Copyright (C) Microsoft Corporation.  All rights reserved.


Dump of file C:\Windows\System32\drivers\mspclock.sys

File Type: EXECUTABLE IMAGE

  Image has the following dependencies:

    ntoskrnl.exe
    ks.sys

  Section contains the following imports:

    ntoskrnl.exe
             1C00050E8 Import Address Table
             1C0005280 Import Name Table
                     0 time date stamp
                     0 Index of first forwarder reference

                          15 ExAllocatePoolWithTag
                          BB KeLeaveCriticalRegion
                          36 ExReleaseFastMutexUnsafe
                          A3 IofCompleteRequest
                          B2 KeInitializeEvent
                          52 IoCreateDevice
                           D ExAcquireFastMutexUnsafe
                          1D ExFreePool
                          4A IoAttachDeviceToDeviceStack
                          5C IoDeleteDevice
                          AE KeEnterCriticalRegion

    ks.sys
             1C0005000 Import Address Table
             1C0005198 Import Name Table
                     0 time date stamp
                     0 Index of first forwarder reference

                          C3 KsSetDevicePnpAndBaseObject
                          34 KsDefaultDispatchPnp
                          C5 KsSetMajorFunctionHandler
                          87 KsNullDriverUnload
                          36 KsDefaultForwardIrp
                          35 KsDefaultDispatchPower
                          E4 KsiPropertyDefaultClockGetCorrelatedPhysicalTime
                          5C KsFreeDeviceHeader
                          61 KsFreeObjectHeader
                          5B KsFreeDefaultClock
                          20 KsAllocateObjectHeader
                          1A KsAllocateDefaultClock
                          C1 KsSetDefaultClockState
                          47 KsEnableEvent
                          38 KsDereferenceSoftwareBusObject
                          1C KsAllocateDeviceHeader
                          E6 KsiPropertyDefaultClockGetFunctionTable
                          E5 KsiPropertyDefaultClockGetCorrelatedTime
                          E3 KsiDefaultClockAddMarkEvent
                          EA KsiPropertyDefaultClockGetTime
                          A6 KsPropertyHandler
                          B1 KsReferenceSoftwareBusObject
                          3D KsDisableEvent
                          5D KsFreeEventList
                          C2 KsSetDefaultClockTime
                          E8 KsiPropertyDefaultClockGetResolution
                          E7 KsiPropertyDefaultClockGetPhysicalTime
                          E9 KsiPropertyDefaultClockGetState

  Summary

        1000 .data
        1000 .guids
        1000 .idata
        1000 .pdata
        1000 .rdata
        1000 .reloc
        1000 .rsrc
        1000 .text
        1000 GFIDS
        1000 INIT
        1000 PAGE
