Microsoft (R) COFF/PE Dumper Version 14.29.30137.0
Copyright (C) Microsoft Corporation.  All rights reserved.


Dump of file C:\Windows\System32\drivers\refsv1.sys

File Type: EXECUTABLE IMAGE

  Image has the following dependencies:

    ntoskrnl.exe

  Section contains the following imports:

    ntoskrnl.exe
             1C0097000 Import Address Table
             1C0097AD8 Import Name Table
                     0 time date stamp
                     0 Index of first forwarder reference

                         ABB __C_specific_handler
                          3A CcSetFileSizesEx
                         3BE KeAcquireGuardedMutex
                          9C ExAllocatePoolWithTag
                         7FF RtlInitializeBitMap
                          C3 ExFreePoolWithTag
                         473 KeReleaseGuardedMutex
                          8B ExAcquireResourceSharedLite
                         114 ExReleaseResourceLite
                         7AF RtlFindNextForwardRunClear
                         41B KeInitializeEvent
                         4C5 KeWaitForSingleObject
                         3DF KeClearEvent
                         1F4 FsRtlOplockIsFastIoPossible
                          E6 ExIsResourceAcquiredExclusiveLite
                          83 ExAcquireFastMutex
                         108 ExReleaseFastMutex
                          16 CcFlushCache
                          1C CcGetFileObjectFromSectionPtrsRef
                         5F8 ObfDereferenceObject
                          2E CcPurgeCacheSection
                         175 FsRtlCheckOplockEx
                          8A ExAcquireResourceExclusiveLite
                         1DC FsRtlNormalizeNtstatus
                         154 ExpInterlockedPushEntrySList
                          EC ExQueryDepthSList
                          2C CcPrepareMdlWrite
                         528 MmMapLockedPagesSpecifyCache
                          29 CcMdlWriteComplete
                           A CcCanIWrite
                         174 FsRtlCheckOplock
                         173 FsRtlCheckLockForWriteAccess
                         1C0 FsRtlIsNtstatusExpected
                          20 CcInitializeCacheMap
                          42 CcUninitializeCacheMap
                         29D IoCreateStreamFileObjectLite
                          3E CcSetParallelFlushFile
                         479 KeReleaseMutant
                          E7 ExIsResourceAcquiredSharedLite
                         5D4 ObDereferenceObjectDeferDelete
                          25 CcMapData
                          2B CcPinRead
                          2D CcPreparePinWrite
                          27 CcMdlReadComplete
                         3D9 KeBugCheckEx
                         2F4 IoGetTopLevelIrp
                          49 CcZeroData
                         73B RtlCaptureStackBackTrace
                          CB ExGetSharedWaiterCount
                          C6 ExGetExclusiveWaiterCount
                         4FA MmCanFileBeTruncated
                           B CcCoherencyFlushAndPurgeCache
                         3E9 KeDelayExecutionThread
                         3F7 KeExpandKernelStackAndCalloutEx
                         3AA IofCompleteRequest
                         36D IoSetTopLevelIrp
                         3F2 KeEnterCriticalRegion
                         43D KeLeaveCriticalRegion
                         504 MmFlushImageSection
                         1E0 FsRtlNotifyFilterChangeDirectory
                         1DE FsRtlNotifyCleanup
                         188 FsRtlFastUnlockAll
                         2EC IoGetRequestorProcess
                         2C4 IoGetActivityIdThread
                         2C3 IoGetActivityIdIrp
                         19E FsRtlHeatLogIo
                         505 MmForceSectionClosed
                         339 IoRemoveShareAccess
                         1EA FsRtlNotifyVolumeEvent
                         320 IoRaiseInformationalHardError
                         2CE IoGetCurrentProcess
                         45E KeQueryPriorityThread
                          F6 ExRaiseStatus
                          F1 ExQueueWorkItem
                         16F FsRtlCancellableWaitForSingleObject
                         27C IoCancelIrp
                         49C KeSetEvent
                         305 IoIsOperationSynchronous
                         183 FsRtlDissectName
                         153 ExpInterlockedPopEntrySList
                         16C FsRtlAreVolumeStartupApplicationsComplete
                          48 CcWaitForCurrentLazyWriterActivity
                         93A SePrivilegeCheck
                         5DA ObGetObjectSecurity
                         5F1 ObReleaseObjectSecurity
                         1EF FsRtlOplockBreakH
                         169 FsRtlAreNamesEqual
                         503 MmDoesFileHaveUserWritableReferences
                         284 IoCheckShareAccess
                         38A IoUpdateShareAccess
                         369 IoSetShareAccessEx
                         285 IoCheckShareAccessEx
                         1F2 FsRtlOplockFsctrl
                         17A FsRtlCurrentBatchOplock
                         17C FsRtlCurrentOplockH
                         35C IoSetInformation
                         27B IoCancelFileOpen
                         22B FsRtlValidateReparsePointBuffer
                          5A DbgPrintEx
                         858 RtlNtStatusToDosErrorNoTeb
                         AD5 _strnicmp
                         698 PsGetProcessImageFileName
                         B2D vDbgPrintEx
                         278 IoBuildPartialMdl
                         552 MmUnmapLockedPages
                         26B IoAllocateMdl
                         53B MmProbeAndLockPages
                         2BF IoFreeMdl
                         529 MmMapLockedPagesWithReservedMapping
                         553 MmUnmapReservedMapping
                         1C3 FsRtlIsTotalDeviceFailure
                         123 ExSetResourceOwnerPointerEx
                         2E4 IoGetIoPriorityHint
                         54F MmUnlockPages
                          44 CcUnpinData
                         535 MmMdlPageContentsState
                         7CD RtlGetCompressionWorkSpaceSize
                           E CcCopyWrite
                         30B IoMakeAssociatedIrp
                         365 IoSetMasterIrpStatus
                         2BE IoFreeIrp
                         401 KeFlushIoBuffers
                         4F9 MmBuildMdlForNonPagedPool
                         276 IoBuildAsynchronousFsdRequest
                         3A9 IofCallDriver
                         113 ExReleaseResourceForThreadLite
                         300 IoIs32bitProcess
                         5E8 ObReferenceObjectByHandle
                         2B9 IoFileObjectType
                         269 IoAllocateIrp
                         185 FsRtlDoesNameContainWildCards
                         1BD FsRtlIsNameInExpression
                         910 SeCaptureSubjectContext
                         1E2 FsRtlNotifyFilterReportChange
                         7FC RtlInitUnicodeString
                         65A ProbeForWrite
                         5E7 ObQueryObjectAuditingByHandle
                         923 SeDeleteObjectAuditAlarm
                         90D SeAuditingHardLinkEventsWithContext
                         903 SeAuditHardLinkCreation
                           C CcCopyRead
                          A5 ExConvertExclusiveToSharedLite
                         1EB FsRtlNotifyVolumeEventEx
                         34A IoRetrievePriorityInfo
                         362 IoSetIoPriorityHintIntoThread
                         26F IoApplyPriorityInfoThread
                         1F5 FsRtlOplockIsSharedRequest
                         171 FsRtlCheckLockForOplockRequest
                         1F6 FsRtlOplockKeysEqual
                         1F3 FsRtlOplockFsctrlEx
                         262 IoAcquireVpbSpinLock
                         337 IoReleaseVpbSpinLock
                         181 FsRtlDismountComplete
                         277 IoBuildDeviceIoControlRequest
                         360 IoSetIoPriorityHint
                         659 ProbeForRead
                          12 CcDeferWrite
                         6CD PsIsThreadTerminating
                         187 FsRtlFastCheckLockForWrite
                         5FA ObfReferenceObject
                         3C9 KeAcquireSpinLockRaiseToDpc
                         47D KeReleaseSpinLock
                         47C KeReleaseSemaphore
                         1A5 FsRtlIncrementCcFastReadWait
                         1A2 FsRtlIncrementCcFastReadNoWait
                         1A4 FsRtlIncrementCcFastReadResourceMiss
                         1A3 FsRtlIncrementCcFastReadNotPossible
                          10 CcCopyWriteWontFlush
                         1A1 FsRtlIncrementCcFastMdlReadWait
                          26 CcMdlRead
                          D4 ExInitializeResourceLite
                          AE ExDeleteResourceLite
                         1FD FsRtlPrivateLock
                         18A FsRtlFastUnlockSingle
                         189 FsRtlFastUnlockAllByKey
                         16B FsRtlAreThereWaitingFileLocks
                         1FE FsRtlProcessFileLock
                         3AD KdDebuggerEnabled
                         19D FsRtlHeatInit
                         16D FsRtlBalanceReads
                         331 IoRegisterPlugPlayNotification
                         760 RtlCopyUnicodeString
                         5E6 ObQueryNameString
                         74C RtlCompareMemory
                         293 IoCreateDevice
                         354 IoSetDeviceToVerify
                         19A FsRtlGetSectorSizeInformation
                         7F5 RtlInitAnsiString
                         72A RtlAnsiStringToUnicodeString
                         29C IoCreateStreamFileObjectEx2
                          35 CcSetAdditionalCacheAttributesEx
                         502 MmDisableModifiedWriteOfSection
                         48D KeResetEvent
                         41C KeInitializeGuardedMutex
                         19F FsRtlHeatLogTierMove
                         8BA RtlTestBit
                         89D RtlSetBits
                         89B RtlSetBit
                           8 CcAddDirtyPagesToExternalCache
                          11 CcDeductDirtyPagesFromExternalCache
                          2F CcRegisterExternalCache
                          47 CcUnregisterExternalCache
                         1C6 FsRtlLegalAnsiCharacterArray
                         8CC RtlUnicodeStringToCountedOemString
                         7C1 RtlFreeOemString
                          28 CcMdlWriteAbort
                         186 FsRtlFastCheckLockForRead
                         72D RtlAppendUnicodeStringToString
                         390 IoVolumeDeviceToDosName
                         3A3 IoWithinStackLimits
                         260 IoAcquireCancelSpinLock
                         334 IoReleaseCancelSpinLock
                         788 RtlDuplicateUnicodeString
                          76 EtwWrite
                         7AD RtlFindMessage
                         513 MmGetSystemRoutineAddress
                         39D IoWMIRegistrationControl
                         7EC RtlGetVersion
                         3D2 KeAllocateCalloutStackEx
                         1D5 FsRtlMdlReadCompleteDev
                         1D9 FsRtlMdlWriteCompleteDev
                         203 FsRtlRegisterFileSystemFilterCallbacks
                          70 EtwRegister
                         41E KeInitializeMutant
                         25E InitializeSListHead
                         425 KeInitializeTimer
                         417 KeInitializeDpc
                         49A KeSetCoalescableTimer
                         422 KeInitializeSemaphore
                         44B KeQueryActiveProcessorCount
                         32C IoRegisterFileSystem
                         404 KeFreeCalloutStack
                         51E MmIsThisAnNtAsSystem
                          D1 ExInitializeNPagedLookasideList
                          D2 ExInitializePagedLookasideList
                         A31 ZwOpenKey
                         9E3 ZwClose
                         A6F ZwQueryValueKey
                         A2A ZwNotifyChangeKey
                         7C3 RtlFreeUnicodeString
                         840 RtlLengthRequiredSid
                         805 RtlInitializeSid
                         8B5 RtlSubAuthoritySid
                         763 RtlCreateAcl
                         719 RtlAddAccessAllowedAce
                         76A RtlCreateSecurityDescriptor
                         8A1 RtlSetDaclSecurityDescriptor
                         900 SeAssignSecurity
                         2DD IoGetFileObjectGenericMapping
                         841 RtlLengthSecurityDescriptor
                         94B SeReleaseSubjectContext
                         71A RtlAddAccessAllowedAceEx
                         3D5 KeAreAllApcsDisabled
                         776 RtlDelete
                         8B1 RtlSplay
                         172 FsRtlCheckLockForReadAccess
                          3F CcSetReadAheadGranularity
                         539 MmPrefetchPages
                          90 ExAcquireSharedStarveExclusive
                         13B ExTryToAcquireFastMutex
                         8F8 SeAccessCheckEx
                         8FB SeAccessCheckWithHint
                         953 SeSetSecurityDescriptorInfo
                         921 SeDeassignSecurity
                         943 SeQuerySecurityDescriptorInfo
                         932 SeLockSubjectContext
                         961 SeUnlockSubjectContext
                         8FC SeAdjustAccessStateForAccessConstraints
                         907 SeAuditingAnyFileEventsWithContextEx
                         8FF SeAppendPrivileges
                         929 SeFreePrivileges
                         955 SeShouldCheckForAccessRightsFromParent
                         90A SeAuditingFileEventsWithContextEx
                         938 SeOpenObjectForDeleteAuditAlarm
                         935 SeOpenObjectAuditAlarm
                         965 SeValidSecurityDescriptor
                         8F7 SeAccessCheck
                         901 SeAssignSecurityEx
                         916 SeComputeAutoInheritByObjectType
                         7D1 RtlGetDaclSecurityDescriptor
                         869 RtlOwnerAcesPresent
                         7E4 RtlGetSaclSecurityDescriptor
                         7A1 RtlFindAceByType
                          75 EtwUnregister
                         279 IoBuildSynchronousFsdRequest
                         391 IoVolumeDeviceToGuid
                         423 KeInitializeSpinLock
                         803 RtlInitializeGenericTableAvl
                         1E7 FsRtlNotifyInitializeSync
                         50E MmGetMaximumFileSectionSize
                         4F0 MmAllocateMappingAddress
                         1A0 FsRtlHeatUninit
                         1E9 FsRtlNotifyUninitializeSync
                         509 MmFreeMappingAddress
                         2AA IoDeleteDevice
                          FF ExReinitializeResourceLite
                         809 RtlInsertElementGenericTableAvl
                         84B RtlLookupElementGenericTableFullAvl
                         80B RtlInsertElementGenericTableFullAvl
                         77A RtlDeleteElementGenericTableAvl
                         21E FsRtlTeardownPerFileContexts
                         792 RtlEnumerateGenericTableWithoutSplayingAvl
                         1AF FsRtlInitializeOplock
                         228 FsRtlUninitializeOplock
                         4F8 MmBadPointer
                         190 FsRtlFreeFileLock
                         21F FsRtlTeardownPerStreamContexts
                         163 FsRtlAllocateFileLock
                         3C5 KeAcquireQueuedSpinLock
                         47B KeReleaseQueuedSpinLock
                          73 EtwSetInformation
                          7B EtwWriteTransfer
                         461 KeQueryTimeIncrement
                         4A4 KeSetPriorityThread
                          38 CcSetDirtyPinnedData
                         385 IoUnregisterPlugPlayNotification
                         38D IoVerifyVolume
                         35B IoSetHardErrorOrVerifyDevice
                         19C FsRtlGetVirtualDiskNestingLevel
                         74F RtlCompareUnicodeString
                         667 PsCreateSystemThread
                         AC9 _purecall
                          C2 ExFreePool
                          AC ExDeleteNPagedLookasideList
                         747 RtlClearBits
                         B0C qsort
                         41F KeInitializeMutex
                         47A KeReleaseMutex
                         7B3 RtlFindSetBits
                         546 MmSetAddressRangeModified
                          89 ExAcquirePushLockSharedEx
                         10E ExReleasePushLockEx
                          88 ExAcquirePushLockExclusiveEx
                         731 RtlAreBitsClear
                         899 RtlSetAllBits
                         7AC RtlFindLongestRunClear
                         85B RtlNumberOfClearBits
                         4C3 KeWaitForMultipleObjects
                         AC5 _local_unwind

  Summary

        B000 .data
        4000 .idata
        6000 .pdata
       21000 .rdata
        5000 .reloc
        4000 .rsrc
       64000 .text
        1000 GFIDS
        2000 INIT
       56000 PAGE
