Microsoft (R) COFF/PE Dumper Version 14.29.30137.0
Copyright (C) Microsoft Corporation.  All rights reserved.


Dump of file C:\Windows\WinSxS\wow64_adobe-flash-for-windows_31bf3856ad364e35_10.0.17763.1_none_26ba783df619c1c0\FlashUtil_ActiveX.dll

File Type: DLL

  Image has the following dependencies:

    VERSION.dll
    WININET.dll
    CRYPT32.dll
    SHLWAPI.dll
    api-ms-win-core-winrt-l1-1-0.dll
    api-ms-win-core-winrt-string-l1-1-0.dll
    PROPSYS.dll
    api-ms-win-core-path-l1-1-0.dll
    KERNEL32.dll
    USER32.dll
    GDI32.dll
    COMDLG32.dll
    ADVAPI32.dll
    SHELL32.dll
    ole32.dll
    OLEAUT32.dll

  Section contains the following exports for FlashUtil.dll

    00000000 characteristics
    5B84591A time date stamp Mon Aug 27 13:03:38 2018
        0.00 version
           1 ordinal base
           1 number of functions
           1 number of names

    ordinal hint RVA      name

          1    0 0001F780 _Start@4

  Section contains the following imports:

    VERSION.dll
              100494FC Import Address Table
              1005AAAC Import Name Table
                     0 time date stamp
                     0 Index of first forwarder reference

                    0 GetFileVersionInfoA
                    F VerQueryValueA
                    4 GetFileVersionInfoSizeA

    WININET.dll
              1004950C Import Address Table
              1005AABC Import Name Table
                     0 time date stamp
                     0 Index of first forwarder reference

                   C2 InternetOpenA
                   C5 InternetOpenW
                   92 InternetCloseHandle
                   98 InternetConnectA
                   C4 InternetOpenUrlW
                   CA InternetReadFile
                   75 HttpOpenRequestA
                   7C HttpSendRequestA
                   7A HttpQueryInfoA

    CRYPT32.dll
              10049068 Import Address Table
              1005A618 Import Name Table
                     0 time date stamp
                     0 Index of first forwarder reference

                   12 CertCloseStore
                   77 CertVerifySubjectCertificateContext
                   1C CertCreateCertificateContext
                   40 CertFreeCertificateContext
                   F0 CryptVerifyMessageSignature
                   9B CryptGetMessageCertificates
                   35 CertFindCertificateInStore

    SHLWAPI.dll
              10049400 Import Address Table
              1005A9B0 Import Name Table
                     0 time date stamp
                     0 Index of first forwarder reference

                  14F StrStrIW
                    8 AssocQueryStringW
                   B7 SHDeleteKeyA
                  15E UrlCanonicalizeW
                   5F PathIsDirectoryW
                   3B PathCanonicalizeW
                      Ordinal   158
                  145 StrRStrIW

    api-ms-win-core-winrt-l1-1-0.dll
              1004953C Import Address Table
              1005AAEC Import Name Table
                     0 time date stamp
                     0 Index of first forwarder reference

                    7 RoUninitialize
                    1 RoGetActivationFactory
                    3 RoInitialize

    api-ms-win-core-winrt-string-l1-1-0.dll
              1004954C Import Address Table
              1005AAFC Import Name Table
                     0 time date stamp
                     0 Index of first forwarder reference

                    7 WindowsCreateStringReference
                    8 WindowsDeleteString
                    6 WindowsCreateString
                    C WindowsGetStringRawBuffer

    PROPSYS.dll
              100493D0 Import Address Table
              1005A980 Import Name Table
                     0 time date stamp
                     0 Index of first forwarder reference

                   14 InitPropVariantFromStringAsVector
                   3E PSGetPropertyDescriptionListFromString
                   2D PSCreateMemoryPropertyStore
                   96 PropVariantToStringVectorAlloc

    api-ms-win-core-path-l1-1-0.dll
              10049534 Import Address Table
              1005AAE4 Import Name Table
                     0 time date stamp
                     0 Index of first forwarder reference

                   10 PathCchRemoveFileSpec

    KERNEL32.dll
              10049158 Import Address Table
              1005A708 Import Name Table
                     0 time date stamp
                     0 Index of first forwarder reference

                  32F HeapAlloc
                  333 HeapFree
                  2A2 GetProcessHeap
                  112 DeviceIoControl
                  349 InitializeCriticalSectionEx
                  105 DeleteCriticalSection
                  4F0 SetEvent
                  48C ReleaseMutex
                   CE CreateMutexA
                  209 GetCurrentProcess
                  561 TerminateProcess
                   D7 CreateProcessA
                  3EE OpenProcess
                  2D0 GetSystemInfo
                  2D4 GetSystemTime
                  2CC GetSystemDirectoryA
                  2CD GetSystemDirectoryW
                  3C0 MapViewOfFile
                  585 UnmapViewOfFile
                  2DC GetSystemWow64DirectoryW
                  19E FreeLibrary
                  262 GetModuleFileNameA
                  267 GetModuleHandleW
                  29D GetProcAddress
                  3A5 LoadLibraryA
                  3A8 LoadLibraryW
                  31E GlobalFree
                  3AE LocalAlloc
                  3B2 LocalFree
                  60B lstrlenW
                   BB CreateFileMappingA
                  3CA MoveFileExW
                  50B SetLastError
                  3D1 MultiByteToWideChar
                  5CD WideCharToMultiByte
                  1A4 GetACP
                  2FD GetUserDefaultLangID
                  249 GetFullPathNameW
                  347 InitializeCriticalSection
                  125 EnterCriticalSection
                  3A2 LeaveCriticalSection
                  345 InitializeConditionVariable
                  5B4 WakeConditionVariable
                  5B3 WakeAllConditionVariable
                  553 SleepConditionVariableCS
                   B4 CreateEventExA
                   E8 CreateThread
                  20D GetCurrentThread
                  263 GetModuleFileNameW
                  2EB GetThreadLocale
                  3FA OutputDebugStringW
                  3AB LoadResource
                  3BD LockResource
                  551 SizeofResource
                  186 FindResourceA
                  316 GlobalAddAtomW
                  20E GetCurrentThreadId
                  20A GetCurrentProcessId
                  42D QueryPerformanceCounter
                  2BE GetStartupInfoW
                  367 IsDebuggerPresent
                  36D IsProcessorFeaturePresent
                  543 SetUnhandledExceptionFilter
                  582 UnhandledExceptionFilter
                  440 RaiseException
                  11F DuplicateHandle
                   FE DecodePointer
                  3F9 OutputDebugStringA
                  5E1 WriteFile
                  4FC SetFilePointer
                  4F7 SetFileAttributesW
                  4F4 SetFileAttributesA
                  495 RemoveDirectoryW
                  450 ReadFile
                  25D GetLongPathNameW
                  23C GetFileSizeEx
                  23B GetFileSize
                  235 GetFileAttributesW
                  230 GetFileAttributesA
                  17F FindNextFileW
                  17D FindNextFileA
                  173 FindFirstFileW
                  16C FindFirstFileA
                  23E GetFileType
                  168 FindClose
                  1EE GetConsoleMode
                  44E ReadConsoleW
                  4FD SetFilePointerEx
                  396 LCMapStringW
                  10A DeleteFileW
                  107 DeleteFileA
                   BA CreateFileA
                   B2 CreateDirectoryW
                   AD CreateDirectoryA
                  59A VerifyVersionInfoW
                  596 VerSetConditionMask
                  264 GetModuleHandleA
                  2F2 GetTickCount
                   DB CreateProcessW
                  22C GetExitCodeProcess
                  552 Sleep
                  5AB WaitForSingleObject
                  250 GetLastError
                   7F CloseHandle
                   C2 CreateFileW
                  338 HeapSize
                  336 HeapReAlloc
                  2D6 GetSystemTimeAsFileTime
                  34B InitializeSListHead
                  4AD RtlUnwind
                  354 InterlockedFlushSList
                  2C5 GetStringTypeW
                  16D FindFirstFileExA
                  372 IsValidCodePage
                  286 GetOEMCP
                  1B3 GetCPInfo
                  1C8 GetCommandLineA
                  1C9 GetCommandLineW
                  121 EncodePointer
                  348 InitializeCriticalSectionAndSpinCount
                  573 TlsAlloc
                  575 TlsGetValue
                  576 TlsSetValue
                  574 TlsFree
                  3A7 LoadLibraryExW
                  151 ExitProcess
                  266 GetModuleHandleExW
                  227 GetEnvironmentStringsW
                  19D FreeEnvironmentStringsW
                  522 SetStdHandle
                  192 FlushFileBuffers
                  1DC GetConsoleCP
                  4EA SetEndOfFile
                  5E0 WriteConsoleW
                  55D SystemTimeToFileTime
                  2C0 GetStdHandle

    USER32.dll
              10049424 Import Address Table
              1005A9D4 Import Name Table
                     0 time date stamp
                     0 Index of first forwarder reference

                    E BeginPaint
                   E9 EndPaint
                  1EF InvalidateRect
                  2F1 SetPropA
                  195 GetPropA
                  314 SetWindowTextW
                  2A5 ReleaseDC
                  134 GetDC
                  301 SetTimer
                  2A4 ReleaseCapture
                  2C0 SetCapture
                  153 GetKeyState
                  142 GetFocus
                  253 MoveWindow
                  320 ShowWindow
                   AD DestroyWindow
                   71 CreateWindowExW
                   1E CallWindowProcW
                   A1 DefWindowProcW
                  125 GetClientRect
                   B5 DispatchMessageW
                  173 GetMessageW
                  2D5 SetForegroundWindow
                  2D4 SetFocus
                  30F SetWindowPos
                  254 MsgWaitForMultipleObjects
                  26B PeekMessageA
                  32E SystemParametersInfoA
                  1D3 GetWindowThreadProcessId
                  105 FillRect
                  143 GetForegroundWindow
                  1AA GetSystemMetrics
                  211 IsWindow
                  271 PostQuitMessage
                  36D WaitForInputIdle
                   B4 DispatchMessageA
                  33F TranslateMessage
                  16F GetMessageA
                  230 LoadStringW
                  1CB GetWindowRect
                  2C9 SetCursor
                  241 MapWindowPoints
                  1C4 GetWindowLongA
                  30C SetWindowLongA
                  17A GetParent
                  1BB GetWindow
                  21E LoadCursorA
                   49 ClientToScreen
                  2F3 SetRect
                  2B7 SendMessageA
                   D6 DrawTextW
                  270 PostMessageW
                  289 RegisterClassExW

    GDI32.dll
              10049088 Import Address Table
              1005A638 Import Name Table
                     0 time date stamp
                     0 Index of first forwarder reference

                  240 GetTextAlign
                  228 GetObjectType
                  1F7 GetDeviceCaps
                  1F0 GetCurrentObject
                  1D5 GetBkMode
                  244 GetTextColor
                  10C DeleteDC
                   56 CreateSolidBrush
                  2D5 SelectObject
                  2DD SetBkMode
                  2EB SetGraphicsMode
                  2FC SetPolyFillMode
                  249 GetTextExtentPoint32A
                  24A GetTextExtentPoint32W
                  25C IntersectClipRect
                  262 LineTo
                  29F RestoreDC
                  2A6 SaveDC
                  10F DeleteObject
                  2D3 SelectClipRgn
                  312 StretchDIBits
                  303 SetTextCharacterExtra
                  304 SetTextColor
                  302 SetTextAlign
                  251 GetTextMetricsA
                  259 GetWorldTransform
                  30C SetWorldTransform
                  30D StartDocA
                  118 EndDoc
                   12 BeginPath
                  11C EndPath
                  16A FillPath
                  2D2 SelectClipPath
                  314 StrokePath
                  15B ExtCreatePen
                  270 MoveToEx
                  160 ExtTextOutA
                  161 ExtTextOutW
                   CD DPtoLP
                  260 LPtoDP
                  285 PolyBezierTo
                   13 BitBlt
                   30 CreateCompatibleBitmap
                   31 CreateCompatibleDC
                  311 StretchBlt
                   36 CreateDIBSection
                   3D CreateFontA
                  247 GetTextExtentExPointW
                  310 StartPage
                   41 CreateFontIndirectW
                  11B EndPage

    COMDLG32.dll
              10049060 Import Address Table
              1005A610 Import Name Table
                     0 time date stamp
                     0 Index of first forwarder reference

                   12 PrintDlgA

    ADVAPI32.dll
              10049000 Import Address Table
              1005A5B0 Import Name Table
                     0 time date stamp
                     0 Index of first forwarder reference

                  216 OpenServiceW
                  213 OpenSCManagerA
                   6A ControlService
                   65 CloseServiceHandle
                   8B CreateProcessAsUserW
                  2A2 RegSetValueExW
                  26C RegDeleteValueW
                  25D RegCreateKeyExW
                  217 OpenThreadToken
                  2A1 RegSetValueExA
                  292 RegQueryValueExW
                  291 RegQueryValueExA
                  285 RegOpenKeyExW
                  284 RegOpenKeyExA
                  288 RegOpenKeyW
                  273 RegEnumKeyExW
                  26B RegDeleteValueA
                  25C RegCreateKeyExA
                  254 RegCloseKey
                  1A6 LookupAccountSidA
                   EF DuplicateTokenEx
                  212 OpenProcessToken
                  24D QueryServiceStatusEx

    SHELL32.dll
              100493E4 Import Address Table
              1005A994 Import Name Table
                     0 time date stamp
                     0 Index of first forwarder reference

                   F4 SHGetSpecialFolderPathW
                      Ordinal   165
                  136 ShellExecuteExW
                   B6 SHFileOperationW
                  137 ShellExecuteW
                   D2 SHGetFolderPathW

    ole32.dll
              10049560 Import Address Table
              1005AB10 Import Name Table
                     0 time date stamp
                     0 Index of first forwarder reference

                   7F CoUninitialize
                   50 CoInitializeEx
                   51 CoInitializeSecurity
                   1A CoCreateInstance
                   4F CoInitialize
                   65 CoRegisterClassObject
                   71 CoRevokeClassObject
                  185 PropVariantClear
                   7B CoTaskMemFree
                   4D CoImpersonateClient
                   70 CoRevertToSelf

    OLEAUT32.dll
              1004937C Import Address Table
              1005A92C Import Name Table
                     0 time date stamp
                     0 Index of first forwarder reference

                      Ordinal     2
                      Ordinal     6
                      Ordinal     8
                      Ordinal     9
                      Ordinal     7
                      Ordinal    15
                      Ordinal    16
                      Ordinal    40
                      Ordinal    19
                      Ordinal    20
                      Ordinal    21
                      Ordinal    22
                      Ordinal    23
                      Ordinal    24
                      Ordinal    27
                      Ordinal    77
                      Ordinal   411
                      Ordinal   162
                      Ordinal    29
                      Ordinal    30

  Summary

        3000 .data
       14000 .rdata
        4000 .reloc
       38000 .rsrc
       48000 .text
