Microsoft (R) COFF/PE Dumper Version 14.29.30137.0
Copyright (C) Microsoft Corporation.  All rights reserved.


Dump of file C:\Windows\WinSxS\amd64_microsoft-windows-restore-acl-cmdline_31bf3856ad364e35_10.0.17763.1_none_040ad33cf58aabd6\DDACLSys.dll

File Type: DLL

  Image has the following dependencies:

    msvcrt.dll
    api-ms-win-core-file-l1-1-0.dll
    api-ms-win-core-errorhandling-l1-1-0.dll
    api-ms-win-core-handle-l1-1-0.dll
    api-ms-win-core-sysinfo-l1-1-0.dll
    api-ms-win-security-sddl-l1-1-0.dll
    api-ms-win-core-heap-l2-1-0.dll
    api-ms-win-security-base-l1-1-0.dll
    api-ms-win-core-io-l1-1-0.dll
    api-ms-win-core-registry-l1-1-0.dll
    api-ms-win-core-file-l1-2-0.dll
    api-ms-win-core-libraryloader-l1-2-0.dll
    api-ms-win-core-synch-l1-2-0.dll
    api-ms-win-core-rtlsupport-l1-1-0.dll
    api-ms-win-core-processthreads-l1-1-0.dll
    api-ms-win-core-profile-l1-1-0.dll
    ADVAPI32.dll
    SHLWAPI.dll

  Section contains the following exports for DDACLSys.DLL

    00000000 characteristics
    17A392D7 time date stamp
        0.00 version
           1 ordinal base
           2 number of functions
           2 number of names

    ordinal hint RVA      name

          1    0 00002310 DDACLSys_Offline_Specialize
          2    1 000022F0 DDACLSys_Specialize

  Section contains the following imports:

    msvcrt.dll
             180004308 Import Address Table
             180005558 Import Name Table
                     0 time date stamp
                     0 Index of first forwarder reference

                         17D _initterm
                          AE _amsg_exit
                          55 _XcptFilter
                          BF _callnewh
                         486 malloc
                         44C free
                         492 memcpy
                         500 wcscat_s
                         505 wcscpy_s
                         38A _wcsicmp
                         363 _vsnprintf
                         369 _vsnwprintf
                          57 __C_specific_handler
                         496 memset

    api-ms-win-core-file-l1-1-0.dll
             180004170 Import Address Table
             1800053C0 Import Name Table
                     0 time date stamp
                     0 Index of first forwarder reference

                          2C GetFileAttributesW
                          1D FindVolumeClose
                          28 GetDriveTypeW
                          1C FindNextVolumeW
                          55 SetFilePointer
                          4E SetEndOfFile
                          2F GetFileSizeEx
                          41 GetVolumeInformationW
                          5B WriteFile
                           6 CreateFileW
                          16 FindFirstVolumeW

    api-ms-win-core-errorhandling-l1-1-0.dll
             180004150 Import Address Table
             1800053A0 Import Name Table
                     0 time date stamp
                     0 Index of first forwarder reference

                          11 UnhandledExceptionFilter
                           5 GetLastError
                           F SetUnhandledExceptionFilter

    api-ms-win-core-handle-l1-1-0.dll
             1800041E0 Import Address Table
             180005430 Import Name Table
                     0 time date stamp
                     0 Index of first forwarder reference

                           0 CloseHandle

    api-ms-win-core-sysinfo-l1-1-0.dll
             1800042B0 Import Address Table
             180005500 Import Name Table
                     0 time date stamp
                     0 Index of first forwarder reference

                          19 GetTickCount
                          15 GetSystemTimeAsFileTime
                           5 GetLocalTime
                          1F GetWindowsDirectoryW

    api-ms-win-security-sddl-l1-1-0.dll
             1800042F0 Import Address Table
             180005540 Import Name Table
                     0 time date stamp
                     0 Index of first forwarder reference

                           2 ConvertStringSecurityDescriptorToSecurityDescriptorW
                           0 ConvertSecurityDescriptorToStringSecurityDescriptorW

    api-ms-win-core-heap-l2-1-0.dll
             1800041F0 Import Address Table
             180005440 Import Name Table
                     0 time date stamp
                     0 Index of first forwarder reference

                           3 LocalFree
                           2 LocalAlloc

    api-ms-win-security-base-l1-1-0.dll
             1800042D8 Import Address Table
             180005528 Import Name Table
                     0 time date stamp
                     0 Index of first forwarder reference

                          37 GetSecurityDescriptorControl
                          38 GetSecurityDescriptorDacl

    api-ms-win-core-io-l1-1-0.dll
             180004208 Import Address Table
             180005458 Import Name Table
                     0 time date stamp
                     0 Index of first forwarder reference

                           4 DeviceIoControl

    api-ms-win-core-registry-l1-1-0.dll
             180004260 Import Address Table
             1800054B0 Import Name Table
                     0 time date stamp
                     0 Index of first forwarder reference

                           0 RegCloseKey
                          25 RegQueryValueExW
                          1E RegOpenKeyExW

    api-ms-win-core-file-l1-2-0.dll
             1800041D0 Import Address Table
             180005420 Import Name Table
                     0 time date stamp
                     0 Index of first forwarder reference

                          44 GetVolumePathNamesForVolumeNameW

    api-ms-win-core-libraryloader-l1-2-0.dll
             180004218 Import Address Table
             180005468 Import Name Table
                     0 time date stamp
                     0 Index of first forwarder reference

                           1 DisableThreadLibraryCalls

    api-ms-win-core-synch-l1-2-0.dll
             1800042A0 Import Address Table
             1800054F0 Import Name Table
                     0 time date stamp
                     0 Index of first forwarder reference

                          2D Sleep

    api-ms-win-core-rtlsupport-l1-1-0.dll
             180004280 Import Address Table
             1800054D0 Import Name Table
                     0 time date stamp
                     0 Index of first forwarder reference

                           F RtlVirtualUnwind
                           9 RtlLookupFunctionEntry
                           2 RtlCaptureContext

    api-ms-win-core-processthreads-l1-1-0.dll
             180004228 Import Address Table
             180005478 Import Name Table
                     0 time date stamp
                     0 Index of first forwarder reference

                           C GetCurrentProcess
                          11 GetCurrentThreadId
                           D GetCurrentProcessId
                          4D TerminateProcess

    api-ms-win-core-profile-l1-1-0.dll
             180004250 Import Address Table
             1800054A0 Import Name Table
                     0 time date stamp
                     0 Index of first forwarder reference

                           0 QueryPerformanceCounter

    ADVAPI32.dll
             180004128 Import Address Table
             180005378 Import Name Table
                     0 time date stamp
                     0 Index of first forwarder reference

                         157 GetNamedSecurityInfoW
                         2E3 SetNamedSecurityInfoW

    SHLWAPI.dll
             180004140 Import Address Table
             180005390 Import Name Table
                     0 time date stamp
                     0 Index of first forwarder reference

                             Ordinal   437

  Summary

        1000 .data
        1000 .pdata
        2000 .rdata
        1000 .reloc
        1000 .rsrc
        3000 .text
