Microsoft (R) COFF/PE Dumper Version 14.29.30137.0
Copyright (C) Microsoft Corporation.  All rights reserved.


Dump of file C:\Windows\WinSxS\amd64_microsoft-windows-audio-mci_31bf3856ad364e35_10.0.17763.1_none_0dd3430b44616bc8\mciseq.dll

File Type: DLL

  Image has the following dependencies:

    ntdll.dll
    api-ms-win-core-heap-l2-1-0.dll
    api-ms-win-core-libraryloader-l1-2-0.dll
    api-ms-win-mm-time-l1-1-0.dll
    api-ms-win-core-largeinteger-l1-1-0.dll
    api-ms-win-core-synch-l1-1-0.dll
    api-ms-win-core-synch-l1-2-0.dll
    api-ms-win-core-handle-l1-1-0.dll
    api-ms-win-core-profile-l1-1-0.dll
    api-ms-win-core-processthreads-l1-1-0.dll
    api-ms-win-core-sysinfo-l1-1-0.dll
    api-ms-win-core-errorhandling-l1-1-0.dll
    USER32.dll
    WINMM.dll

  Section contains the following exports for MCISEQ.dll

    00000000 characteristics
    D4084586 time date stamp
        0.00 version
           1 ordinal base
           1 number of functions
           1 number of names

    ordinal hint RVA      name

          1    0 00002FE0 DriverProc

  Section contains the following imports:

    ntdll.dll
             180007340 Import Address Table
             180007C20 Import Name Table
                     0 time date stamp
                     0 Index of first forwarder reference

                         4CA RtlLookupFunctionEntry
                         5F2 RtlVirtualUnwind
                         2EA RtlCaptureContext
                         8F9 memset

    api-ms-win-core-heap-l2-1-0.dll
             180007230 Import Address Table
             180007B10 Import Name Table
                     0 time date stamp
                     0 Index of first forwarder reference

                           B LocalLock
                           2 GlobalFree
                           A LocalFree
                           0 GlobalAlloc
                           8 LocalAlloc

    api-ms-win-core-libraryloader-l1-2-0.dll
             180007270 Import Address Table
             180007B50 Import Name Table
                     0 time date stamp
                     0 Index of first forwarder reference

                          1C LoadStringW
                           1 DisableThreadLibraryCalls

    api-ms-win-mm-time-l1-1-0.dll
             180007318 Import Address Table
             180007BF8 Import Name Table
                     0 time date stamp
                     0 Index of first forwarder reference

                           0 timeBeginPeriod
                           4 timeGetTime
                           1 timeEndPeriod
                           2 timeGetDevCaps

    api-ms-win-core-largeinteger-l1-1-0.dll
             180007260 Import Address Table
             180007B40 Import Name Table
                     0 time date stamp
                     0 Index of first forwarder reference

                          45 MulDiv

    api-ms-win-core-synch-l1-1-0.dll
             1800072C0 Import Address Table
             180007BA0 Import Name Table
                     0 time date stamp
                     0 Index of first forwarder reference

                          1D LeaveCriticalSection
                          18 InitializeCriticalSection
                          11 EnterCriticalSection
                           F DeleteCriticalSection
                          36 WaitForSingleObject

    api-ms-win-core-synch-l1-2-0.dll
             1800072F0 Import Address Table
             180007BD0 Import Name Table
                     0 time date stamp
                     0 Index of first forwarder reference

                          2D Sleep

    api-ms-win-core-handle-l1-1-0.dll
             180007220 Import Address Table
             180007B00 Import Name Table
                     0 time date stamp
                     0 Index of first forwarder reference

                           0 CloseHandle

    api-ms-win-core-profile-l1-1-0.dll
             1800072B0 Import Address Table
             180007B90 Import Name Table
                     0 time date stamp
                     0 Index of first forwarder reference

                           0 QueryPerformanceCounter

    api-ms-win-core-processthreads-l1-1-0.dll
             180007288 Import Address Table
             180007B68 Import Name Table
                     0 time date stamp
                     0 Index of first forwarder reference

                          11 GetCurrentThreadId
                          4D TerminateProcess
                           C GetCurrentProcess
                           D GetCurrentProcessId

    api-ms-win-core-sysinfo-l1-1-0.dll
             180007300 Import Address Table
             180007BE0 Import Name Table
                     0 time date stamp
                     0 Index of first forwarder reference

                          19 GetTickCount
                          15 GetSystemTimeAsFileTime

    api-ms-win-core-errorhandling-l1-1-0.dll
             180007208 Import Address Table
             180007AE8 Import Name Table
                     0 time date stamp
                     0 Index of first forwarder reference

                          11 UnhandledExceptionFilter
                           F SetUnhandledExceptionFilter

    USER32.dll
             180007118 Import Address Table
             1800079F8 Import Name Table
                     0 time date stamp
                     0 Index of first forwarder reference

                         144 GetDesktopWindow
                          BC DispatchMessageW
                         186 GetMessageW
                         2BA PostThreadMessageW

    WINMM.dll
             180007140 Import Address Table
             180007A20 Import Name Table
                     0 time date stamp
                     0 Index of first forwarder reference

                          79 mmioRead
                          78 mmioOpenW
                           1 DefDriverProc
                          4A midiOutLongMsg
                          69 mmGetCurrentTask
                          6B mmTaskCreate
                          24 mciGetDriverData
                          50 midiOutShortMsg
                          41 midiOutCachePatches
                          51 midiOutUnprepareHeader
                          2D mciSetDriverData
                          1C mciDriverYield
                          1B mciDriverNotify
                          42 midiOutClose
                          8B timeKillEvent
                          4C midiOutOpen
                          48 midiOutGetNumDevs
                          8C timeSetEvent
                          70 mmioClose
                          6F mmioAscend
                          72 mmioDescend
                          4D midiOutPrepareHeader
                          40 midiOutCacheDrumPatches
                          7C mmioSeek

  Summary

        3000 .data
        1000 .pdata
        2000 .rdata
        1000 .reloc
        1000 .rsrc
        6000 .text
