Microsoft (R) COFF/PE Dumper Version 14.29.30137.0
Copyright (C) Microsoft Corporation.  All rights reserved.


Dump of file C:\Windows\WinSxS\amd64_microsoft-windows-bioenrollment.appxmain_31bf3856ad364e35_10.0.17763.1_none_f12c3da94e325582\BioEnrollmentUI.dll

File Type: DLL

  Image has the following dependencies:

    api-ms-win-eventing-provider-l1-1-0.dll
    api-ms-win-core-com-l1-1-0.dll
    wincorlib.DLL
    api-ms-win-core-handle-l1-1-0.dll
    api-ms-win-core-synch-l1-1-0.dll
    api-ms-win-core-errorhandling-l1-1-0.dll
    api-ms-win-core-heap-l1-1-0.dll
    api-ms-win-core-sysinfo-l1-1-0.dll
    api-ms-win-core-synch-l1-2-0.dll
    api-ms-win-core-threadpool-l1-2-0.dll
    api-ms-win-core-debug-l1-1-0.dll
    api-ms-win-core-processthreads-l1-1-0.dll
    api-ms-win-core-localization-l1-2-0.dll
    api-ms-win-core-libraryloader-l1-2-0.dll
    api-ms-win-core-util-l1-1-0.dll
    api-ms-win-core-winrt-error-l1-1-0.dll
    api-ms-win-core-winrt-string-l1-1-0.dll
    msvcrt.dll
    api-ms-win-core-rtlsupport-l1-1-0.dll
    api-ms-win-core-profile-l1-1-0.dll
    api-ms-win-core-string-l1-1-0.dll

  Section contains the following exports for BioEnrollmentUI.dll

    00000000 characteristics
    FFFFFFFF time date stamp
        0.00 version
           1 ordinal base
           2 number of functions
           2 number of names

    ordinal hint RVA      name

          1    0 00116B70 DllCanUnloadNow
          2    1 00116B90 DllGetActivationFactory

  Section contains the following imports:

    api-ms-win-eventing-provider-l1-1-0.dll
             180129320 Import Address Table
             1801B27B0 Import Name Table
                     0 time date stamp
                     0 Index of first forwarder reference

                           3 EventRegister
                           4 EventSetInformation
                           5 EventUnregister
                           0 EventActivityIdControl
                           9 EventWriteTransfer

    api-ms-win-core-com-l1-1-0.dll
             180129000 Import Address Table
             1801B2490 Import Name Table
                     0 time date stamp
                     0 Index of first forwarder reference

                           7 CoCreateFreeThreadedMarshaler
                          40 CoTaskMemAlloc
                          41 CoTaskMemFree
                          18 CoGetContextToken
                          2C CoMarshalInterThreadInterfaceInStream
                          1C CoGetInterfaceAndReleaseStream
                          13 CoGetApartmentType
                          1F CoGetObjectContext

    wincorlib.DLL
             180129568 Import Address Table
             1801B29F8 Import Name Table
                     0 time date stamp
                     0 Index of first forwarder reference

                          B4 ?ReCreateFromException@Details@Platform@@YAJPE$AAVException@2@@Z
                          9B ?GetIidsFn@@YAJHPEAKPEBU__s_GUID@@PEAPEAVGuid@Platform@@@Z
                          80 ?GetActivationFactoryByPCWSTR@@YAJPEAXAEAVGuid@Platform@@PEAPEAX@Z
                          56 ?AllocateException@Heap@Details@Platform@@SAPEAX_K0@Z
                          B9 ?ReleaseTarget@ControlBlock@Details@Platform@@AEAAXXZ
                          52 ?AlignedFree@Heap@Details@Platform@@SAXPEAX@Z
                          7D ?Free@Heap@Details@Platform@@SAXPEAX@Z
                          E6 ?__abi_WinRTraiseNotImplementedException@@YAXXZ
                          E5 ?__abi_WinRTraiseInvalidCastException@@YAXXZ
                          E7 ?__abi_WinRTraiseNullReferenceException@@YAXXZ
                          E9 ?__abi_WinRTraiseOperationCanceledException@@YAXXZ
                          E3 ?__abi_WinRTraiseFailureException@@YAXXZ
                          DE ?__abi_WinRTraiseAccessDeniedException@@YAXXZ
                          EB ?__abi_WinRTraiseOutOfMemoryException@@YAXXZ
                          E4 ?__abi_WinRTraiseInvalidArgumentException@@YAXXZ
                          EA ?__abi_WinRTraiseOutOfBoundsException@@YAXXZ
                          E0 ?__abi_WinRTraiseChangedStateException@@YAXXZ
                          E1 ?__abi_WinRTraiseClassNotRegisteredException@@YAXXZ
                          EC ?__abi_WinRTraiseWrongThreadException@@YAXXZ
                          E2 ?__abi_WinRTraiseDisconnectedException@@YAXXZ
                          E8 ?__abi_WinRTraiseObjectDisposedException@@YAXXZ
                          DF ?__abi_WinRTraiseCOMException@@YAXJ@Z
                          D5 ?UninitializeData@Details@Platform@@YAXH@Z
                          AF ?InitializeData@Details@Platform@@YAJH@Z
                          DB ?__abi_FailFast@@YAXXZ
                          20 ??0NullReferenceException@Platform@@QE$AAA@XZ
                          5C ?CreateValue@Details@Platform@@YAPE$AAVObject@2@W4TypeCode@2@PEBX@Z
                          54 ?Allocate@Heap@Details@Platform@@SAPEAX_K0@Z
                          21 ??0Object@Platform@@QE$AAA@XZ
                          9A ?GetIBoxVtable@Details@Platform@@YAPEAXPEAX@Z
                          AC ?GetTypeCode@Type@Platform@@SA?AW4TypeCode@2@PE$AAV12@@Z
                          EF ?__abi_make_type_id@@YAPE$AAVType@Platform@@AEBU__abi_type_descriptor@@@Z
                          F7 ?get@FullName@Type@Platform@@QE$AAAPE$AAVString@3@XZ
                          DC ?__abi_ObjectToString@__abi_details@@YAPE$AAVString@Platform@@PE$AAVObject@3@_N@Z
                          1E ??0NotImplementedException@Platform@@QE$AAA@XZ
                          75 ?EventSourceAdd@Details@Platform@@YA?AVEventRegistrationToken@Foundation@Windows@@PEAPEAXPEAUEventLock@12@PE$AAVDelegate@2@@Z
                          7A ?EventSourceRemove@Details@Platform@@YAXPEAPEAXPEAUEventLock@12@VEventRegistrationToken@Foundation@Windows@@@Z
                          45 ??BType@Platform@@SA?AVTypeName@Interop@Xaml@UI@Windows@@PE$AAV01@@Z
                          7B ?EventSourceUninitialize@Details@Platform@@YAXPEAPEAX@Z
                          79 ?EventSourceInitialize@Details@Platform@@YAXPEAPEAX@Z
                          77 ?EventSourceGetTargetArrayEvent@Details@Platform@@YAPEAXPEAXIPEBXPEA_J@Z
                          78 ?EventSourceGetTargetArraySize@Details@Platform@@YAIPEAX@Z
                          76 ?EventSourceGetTargetArray@Details@Platform@@YAPEAXPEAXPEAUEventLock@12@@Z
                          15 ??0GridLength@Xaml@UI@Windows@@QEAA@NW4GridUnitType@123@@Z
                          EE ?__abi_cast_String_to_Object@__abi_details@@YAPE$AAVObject@Platform@@PE$AAVString@3@@Z
                          12 ??0Exception@Platform@@QE$AAA@HPE$AAVString@1@@Z
                          F9 ?get@Message@Exception@Platform@@QE$AAAPE$AAVString@3@XZ
                          5A ?CreateException@Exception@Platform@@SAPE$AAV12@H@Z
                          2A ??0OutOfMemoryException@Platform@@QE$AAA@XZ
                          14 ??0FailureException@Platform@@QE$AAA@XZ
                          28 ??0OutOfBoundsException@Platform@@QE$AAA@XZ
                           A ??0ChangedStateException@Platform@@QE$AAA@XZ
                           F ??0DisconnectedException@Platform@@QE$AAA@XZ
                           D ??0Delegate@Platform@@QE$AAA@XZ
                          B3 ?ReCreateException@Exception@Platform@@SAPE$AAV12@H@Z
                          99 ?GetIBoxArrayVtable@Details@Platform@@YAPEAXPEAX@Z
                          D2 ?ToString@uint32@default@@QEAAPE$AAVString@Platform@@XZ
                          CE ?ToString@int32@default@@QEAAPE$AAVString@Platform@@XZ
                          6B ?Equals@float32@default@@QEAA_NPE$AAVObject@Platform@@@Z
                          AD ?GetWeakReference@Details@Platform@@YAPEAU__abi_IUnknown@@QE$ADVObject@2@@Z
                          BA ?ResolveWeakReference@Details@Platform@@YAPE$AAVObject@2@AEBU_GUID@@PEAPEAU__abi_IUnknown@@@Z
                          9C ?GetObjectContext@Details@Platform@@YAPEAUIUnknown@@XZ
                          B8 ?ReleaseInContextImpl@Details@Platform@@YAJPEAUIUnknown@@0@Z
                          9D ?GetProxyImpl@Details@Platform@@YAJPEAUIUnknown@@AEBU_GUID@@0PEAPEAU3@@Z
                          19 ??0InvalidArgumentException@Platform@@QE$AAA@XZ
                          5B ?CreateException@Exception@Platform@@SAPE$AAV12@HPE$AAVString@2@@Z
                          7F ?GetActivationFactory@Details@Platform@@YAJPEAVModuleBase@1WRL@Microsoft@@PEAUHSTRING__@@PEAPEAUIActivationFactory@@@Z
                          BD ?TerminateModule@Details@Platform@@YA_NPEAVModuleBase@1WRL@Microsoft@@@Z
                          11 ??0Exception@Platform@@QE$AAA@H@Z

    api-ms-win-core-handle-l1-1-0.dll
             180129090 Import Address Table
             1801B2520 Import Name Table
                     0 time date stamp
                     0 Index of first forwarder reference

                           0 CloseHandle

    api-ms-win-core-synch-l1-1-0.dll
             180129178 Import Address Table
             1801B2608 Import Name Table
                     0 time date stamp
                     0 Index of first forwarder reference

                           B CreateSemaphoreExW
                          29 SetEvent
                          23 ReleaseMutex
                           9 CreateMutexExW
                           1 AcquireSRWLockShared
                           0 AcquireSRWLockExclusive
                          11 EnterCriticalSection
                           F DeleteCriticalSection
                          21 OpenSemaphoreW
                          1A InitializeCriticalSectionEx
                          24 ReleaseSRWLockExclusive
                          25 ReleaseSRWLockShared
                          26 ReleaseSemaphore
                           5 CreateEventExW
                          1D LeaveCriticalSection
                          37 WaitForSingleObjectEx
                          31 TryAcquireSRWLockExclusive
                          36 WaitForSingleObject
                          27 ResetEvent
                          1B InitializeSRWLock
                          33 TryEnterCriticalSection
                          18 InitializeCriticalSection

    api-ms-win-core-errorhandling-l1-1-0.dll
             180129068 Import Address Table
             1801B24F8 Import Name Table
                     0 time date stamp
                     0 Index of first forwarder reference

                           F SetUnhandledExceptionFilter
                           D SetLastError
                           5 GetLastError
                          11 UnhandledExceptionFilter

    api-ms-win-core-heap-l1-1-0.dll
             1801290A0 Import Address Table
             1801B2530 Import Name Table
                     0 time date stamp
                     0 Index of first forwarder reference

                           0 GetProcessHeap
                           2 HeapAlloc
                           6 HeapFree

    api-ms-win-core-sysinfo-l1-1-0.dll
             180129260 Import Address Table
             1801B26F0 Import Name Table
                     0 time date stamp
                     0 Index of first forwarder reference

                          1A GetTickCount64
                          19 GetTickCount
                          15 GetSystemTimeAsFileTime

    api-ms-win-core-synch-l1-2-0.dll
             180129230 Import Address Table
             1801B26C0 Import Name Table
                     0 time date stamp
                     0 Index of first forwarder reference

                          14 InitOnceComplete
                          13 InitOnceBeginInitialize
                          39 WakeAllConditionVariable
                          2F SleepConditionVariableSRW
                          2D Sleep

    api-ms-win-core-threadpool-l1-2-0.dll
             180129280 Import Address Table
             1801B2710 Import Name Table
                     0 time date stamp
                     0 Index of first forwarder reference

                           C CreateThreadpoolTimer
                           6 CloseThreadpoolTimer
                          1A SetThreadpoolTimer
                          22 WaitForThreadpoolTimerCallbacks

    api-ms-win-core-debug-l1-1-0.dll
             180129048 Import Address Table
             1801B24D8 Import Name Table
                     0 time date stamp
                     0 Index of first forwarder reference

                           7 OutputDebugStringW
                           5 IsDebuggerPresent
                           4 DebugBreak

    api-ms-win-core-processthreads-l1-1-0.dll
             180129100 Import Address Table
             1801B2590 Import Name Table
                     0 time date stamp
                     0 Index of first forwarder reference

                           D GetCurrentProcessId
                           C GetCurrentProcess
                          4D TerminateProcess
                          11 GetCurrentThreadId

    api-ms-win-core-localization-l1-2-0.dll
             1801290E8 Import Address Table
             1801B2578 Import Name Table
                     0 time date stamp
                     0 Index of first forwarder reference

                           9 FormatMessageW
                          14 GetLocaleInfoEx

    api-ms-win-core-libraryloader-l1-2-0.dll
             1801290C0 Import Address Table
             1801B2550 Import Name Table
                     0 time date stamp
                     0 Index of first forwarder reference

                          14 GetModuleHandleW
                           F GetModuleFileNameA
                          13 GetModuleHandleExW
                          15 GetProcAddress

    api-ms-win-core-util-l1-1-0.dll
             1801292A8 Import Address Table
             1801B2738 Import Name Table
                     0 time date stamp
                     0 Index of first forwarder reference

                           4 EncodePointer
                           1 DecodePointer

    api-ms-win-core-winrt-error-l1-1-0.dll
             1801292C0 Import Address Table
             1801B2750 Import Name Table
                     0 time date stamp
                     0 Index of first forwarder reference

                           9 RoOriginateError

    api-ms-win-core-winrt-string-l1-1-0.dll
             1801292D0 Import Address Table
             1801B2760 Import Name Table
                     0 time date stamp
                     0 Index of first forwarder reference

                          13 WindowsIsStringEmpty
                           F WindowsGetStringLen
                           E WindowsDuplicateString
                           C WindowsDeleteString
                           B WindowsCreateStringReference
                           A WindowsCreateString
                           9 WindowsConcatString
                           8 WindowsCompareStringOrdinal
                          10 WindowsGetStringRawBuffer

    msvcrt.dll
             180129350 Import Address Table
             1801B27E0 Import Name Table
                     0 time date stamp
                     0 Index of first forwarder reference

                         4B4 sin
                         42B cos
                         132 _free_locale
                         14E _get_current_locale
                          79 __crtLCMapStringW
                          75 __crtCompareStringW
                         385 _wcsdup
                         412 abort
                         491 memcmp
                          6C ___lc_collate_cp_func
                         425 calloc
                          8A __pctype_func
                         199 _ismbblead
                          6B ___lc_codepage_func
                          6D ___lc_handle_func
                          6E ___mb_cur_max_func
                         4B1 setlocale
                         494 memmove
                         492 memcpy
                          5B __CxxFrameHandler3
                          14 ??3@YAXPEAX@Z
                         493 memcpy_s
                         29E _purecall
                         128 _fpclass
                          63 __ExceptionPtrDestroy
                          5F __ExceptionPtrCopy
                          64 __ExceptionPtrRethrow
                          62 __ExceptionPtrCurrentException
                          61 __ExceptionPtrCreate
                          2F ?terminate@@YAXXZ
                           C ??0exception@@QEAA@AEBV0@@Z
                          11 ??1exception@@UEAA@XZ
                           D ??0exception@@QEAA@XZ
                         50B wcsncmp
                          31 ?what@exception@@UEBAPEBDXZ
                           A ??0exception@@QEAA@AEBQEBD@Z
                         369 _vsnwprintf
                         367 _vsnprintf_s
                         514 wcsstr
                         495 memmove_s
                         38A _wcsicmp
                         105 _errno
                         518 wcstol
                         510 wcsrchr
                           6 ??0bad_cast@@QEAA@AEBV0@@Z
                           F ??1bad_cast@@UEAA@XZ
                           7 ??0bad_cast@@QEAA@PEBD@Z
                         44C free
                         4C1 strchr
                         4A9 realloc
                         496 memset
                         508 wcslen
                          4B _CxxThrowException
                          12 ??1type_info@@UEAA@XZ
                         1E6 _lock
                         341 _unlock
                         4BB sqrtf
                          57 __C_specific_handler
                         290 _onexit
                          55 _XcptFilter
                          AE _amsg_exit
                         486 malloc
                         17D _initterm
                           B ??0exception@@QEAA@AEBQEBDH@Z
                          BF _callnewh
                          7B __dllonexit

    api-ms-win-core-rtlsupport-l1-1-0.dll
             180129138 Import Address Table
             1801B25C8 Import Name Table
                     0 time date stamp
                     0 Index of first forwarder reference

                         2EA RtlCaptureContext
                         4CA RtlLookupFunctionEntry
                         5F2 RtlVirtualUnwind

    api-ms-win-core-profile-l1-1-0.dll
             180129128 Import Address Table
             1801B25B8 Import Name Table
                     0 time date stamp
                     0 Index of first forwarder reference

                           0 QueryPerformanceCounter

    api-ms-win-core-string-l1-1-0.dll
             180129158 Import Address Table
             1801B25E8 Import Name Table
                     0 time date stamp
                     0 Index of first forwarder reference

                           7 WideCharToMultiByte
                           6 MultiByteToWideChar
                           5 GetStringTypeW

  Summary

       1E000 .data
       11000 .pdata
       8C000 .rdata
        7000 .reloc
        1000 .rsrc
      128000 .text
