Microsoft (R) COFF/PE Dumper Version 14.29.30137.0
Copyright (C) Microsoft Corporation.  All rights reserved.


Dump of file C:\Windows\System32\AcGenral.dll

File Type: DLL

  Image has the following dependencies:

    apphelp.dll
    msvcrt.dll
    ntdll.dll
    api-ms-win-service-core-l1-1-1.dll
    api-ms-win-service-winsvc-l1-1-0.dll
    api-ms-win-service-management-l1-1-0.dll
    api-ms-win-service-management-l2-1-0.dll
    api-ms-win-eventing-provider-l1-1-0.dll
    SHLWAPI.dll
    USER32.dll
    ole32.dll
    SHELL32.dll
    USERENV.dll
    KERNEL32.dll
    ADVAPI32.dll
    RPCRT4.dll
    MPR.dll
    SspiCli.dll
    api-ms-win-core-apiquery-l1-1-0.dll

  Image has the following delay load dependencies:

    ext-ms-win-ntuser-windowstation-l1-1-0.dll
    pcacli.dll

  Section contains the following exports for AcGenral.dll

    00000000 characteristics
    F2D21A14 time date stamp
        0.00 version
           1 ordinal base
           2 number of functions
           2 number of names

    ordinal hint RVA      name

          1    0 000044D0 GetHookAPIs
          2    1 00004570 NotifyShims

  Section contains the following imports:

    apphelp.dll
             180037720 Import Address Table
             18004ECF8 Import Name Table
                     0 time date stamp
                     0 Index of first forwarder reference

                          34 SE_ShimDPF
                          1B SE_CALLBACK_Lookup
                          1C SE_COM_AddHook
                          1D SE_COM_AddServer
                          20 SE_COM_Lookup
                          B8 SdbReleaseDatabase
                          1A SE_CALLBACK_AddHook
                          2A SE_GetShimId
                          8A SdbInitDatabase
                          7E SdbGetPDBFromGUID
                          BA SdbResolveDatabase
                          9A SdbOpenLocalDatabase
                          53 SdbFindFirstTag
                          5A SdbFindNextTag
                          85 SdbGetStringTagPtr

    msvcrt.dll
             1800377A0 Import Address Table
             18004ED78 Import Name Table
                     0 time date stamp
                     0 Index of first forwarder reference

                          5B __CxxFrameHandler3
                         38A _wcsicmp
                         369 _vsnwprintf
                          55 _XcptFilter
                          AE _amsg_exit
                         394 _wcsnicmp
                         4C1 strchr
                         4D9 strtoul
                         420 atoi
                         2FA _stricmp
                         4D4 strstr
                         50B wcsncmp
                         405 _wtoi
                         518 wcstol
                         500 wcscat_s
                         517 wcstok_s
                         4D2 strrchr
                         510 wcsrchr
                         501 wcschr
                         50F wcspbrk
                         3A6 _wcsupr
                         514 wcsstr
                         513 wcsspn
                         360 _vscwprintf
                         478 iswspace
                         3F6 _wsplitpath_s
                         472 iswctype
                         4EB towlower
                         4EC towupper
                         505 wcscpy_s
                          12 ??1type_info@@UEAA@XZ
                         44C free
                         486 malloc
                         17D _initterm
                          57 __C_specific_handler
                          2F ?terminate@@YAXXZ
                         1E6 _lock
                         341 _unlock
                          7B __dllonexit
                         290 _onexit
                          4B _CxxThrowException
                         502 wcscmp
                         1E1 _local_unwind
                         492 memcpy
                         494 memmove
                         496 memset
                         4C2 strcmp

    ntdll.dll
             180037920 Import Address Table
             18004EEF8 Import Name Table
                     0 time date stamp
                     0 Index of first forwarder reference

                         52A RtlReAllocateHeap
                         5A1 RtlSubAuthoritySid
                         1D8 NtQueryInformationToken
                         467 RtlInitializeSid
                         4B1 RtlLengthRequiredSid
                         493 RtlIsDosDeviceName_U
                         3E5 RtlGUIDFromString
                         451 RtlInitUnicodeString
                         5C4 RtlUnicodeStringToInteger
                         2D1 RtlAnsiStringToUnicodeString
                         446 RtlInitAnsiString
                          FB NtClose
                         240 NtSetInformationProcess
                         3A8 RtlEqualSid
                         41A RtlGetOwnerSecurityDescriptor
                         1EB NtQuerySecurityObject
                         199 NtOpenFile
                         385 RtlDosPathNameToNtPathName_U
                         4DD RtlNtStatusToDosError
                         5F2 RtlVirtualUnwind
                         4CA RtlLookupFunctionEntry
                         2EA RtlCaptureContext
                         3DD RtlFreeHeap
                         2CB RtlAllocateHeap
                         1E3 NtQueryObject
                         33C RtlCreateServiceSid
                         3E3 RtlFreeUnicodeString
                         3D7 RtlFormatCurrentUserKeyPath
                         25C NtSetValueKey
                         116 NtCreateKey
                         1F6 NtQueryValueKey
                         19C NtOpenKey
                         43F RtlImageNtHeader
                         499 RtlIsNameInExpression
                         1A6 NtOpenProcessToken
                         418 RtlGetNtSystemRoot
                         1AF NtOpenThreadToken

    api-ms-win-service-core-l1-1-1.dll
             1800376C8 Import Address Table
             18004ECA0 Import Name Table
                     0 time date stamp
                     0 Index of first forwarder reference

                           0 EnumDependentServicesW

    api-ms-win-service-winsvc-l1-1-0.dll
             180037710 Import Address Table
             18004ECE8 Import Name Table
                     0 time date stamp
                     0 Index of first forwarder reference

                           2 ControlService

    api-ms-win-service-management-l1-1-0.dll
             1800376D8 Import Address Table
             18004ECB0 Import Name Table
                     0 time date stamp
                     0 Index of first forwarder reference

                           3 DeleteService
                           4 OpenSCManagerW
                           5 OpenServiceW
                           0 CloseServiceHandle

    api-ms-win-service-management-l2-1-0.dll
             180037700 Import Address Table
             18004ECD8 Import Name Table
                     0 time date stamp
                     0 Index of first forwarder reference

                           6 QueryServiceStatusEx

    api-ms-win-eventing-provider-l1-1-0.dll
             1800376B8 Import Address Table
             18004EC90 Import Name Table
                     0 time date stamp
                     0 Index of first forwarder reference

                           9 EventWriteTransfer

    SHLWAPI.dll
             1800375B8 Import Address Table
             18004EB90 Import Name Table
                     0 time date stamp
                     0 Index of first forwarder reference

                         108 SHStrDupW
                          C7 SHGetValueW

    USER32.dll
             1800375E0 Import Address Table
             18004EBB8 Import Name Table
                     0 time date stamp
                     0 Index of first forwarder reference

                         130 GetClassNameW
                         35C SetPropW
                         240 IsWindow
                         2B8 PostQuitMessage
                         32D SetCursor
                         156 GetGUIThreadInfo
                         1F2 GetWindowThreadProcessId
                          FC EnumDisplayDevicesW
                         35D SetRect
                         1C1 GetSystemMetrics
                         2F9 RegisterSuspendResumeNotification
                         251 LoadCursorW
                         31D SendMessageW
                         3AF TranslateMessage
                         1BB GetShellWindow
                         38F ShowWindow
                           7 AllowSetForegroundWindow
                         29B MsgWaitForMultipleObjects
                          BC DispatchMessageW
                         188 GetMonitorInfoW
                         2B3 PeekMessageW

    ole32.dll
             180037A50 Import Address Table
             18004F028 Import Name Table
                     0 time date stamp
                     0 Index of first forwarder reference

                          8C CoTaskMemFree
                          2B CoCreateInstance
                          54 CoGetObject
                         20C StringFromGUID2

    SHELL32.dll
             180037580 Import Address Table
             18004EB58 Import Name Table
                     0 time date stamp
                     0 Index of first forwarder reference

                         157 SHGetFolderPathW
                         175 SHGetSpecialFolderPathW
                          8B SHChangeNotify
                             Ordinal   165
                          9B SHCreateDirectoryExW
                         156 SHGetFolderPathEx

    USERENV.dll
             180037690 Import Address Table
             18004EC68 Import Name Table
                     0 time date stamp
                     0 Index of first forwarder reference

                          17 GetAllUsersProfileDirectoryW
                          26 GetUserProfileDirectoryW

    KERNEL32.dll
             180037250 Import Address Table
             18004E828 Import Name Table
                     0 time date stamp
                     0 Index of first forwarder reference

                         274 GetLongPathNameW
                         260 GetFullPathNameW
                         442 QueryActCtxSettingsW
                         2D4 GetShortPathNameW
                         646 lstrcmpiW
                          CB CreateFileW
                         4CD ResolveDelayLoadedAPI
                         10E DelayLoadFailureHook
                         4B6 ReleaseSRWLockExclusive
                           0 AcquireSRWLockExclusive
                         5EE WakeAllConditionVariable
                         58D SleepConditionVariableSRW
                         4E6 SearchPathW
                         32F GetWindowsDirectoryW
                         217 GetCurrentDirectoryW
                         432 ProcessIdToSessionId
                          BF CreateEventW
                         24C GetFileAttributesW
                         2E7 GetSystemDirectoryW
                         247 GetFileAttributesA
                          9A CompareStringOrdinal
                         4D1 ResumeThread
                          7B CheckElevationEnabled
                         5DB VirtualProtect
                         27A GetModuleFileNameW
                          F2 CreateThread
                         168 ExpandEnvironmentStringsW
                         31E GetUserDefaultUILanguage
                         523 SetErrorMode
                          86 CloseHandle
                         21E GetCurrentProcessId
                         58B Sleep
                         450 QueryPerformanceCounter
                         222 GetCurrentThreadId
                         2F0 GetSystemTimeAsFileTime
                         30E GetTickCount
                         5BC UnhandledExceptionFilter
                         57B SetUnhandledExceptionFilter
                         21D GetCurrentProcess
                         59A TerminateProcess
                         27E GetModuleHandleW
                         2B5 GetProcAddress
                         34E HeapAlloc
                         2BB GetProcessHeap
                         54E SetProcessInformation
                         164 ExitProcess
                         522 SetEnvironmentVariableW
                         240 GetEnvironmentVariableW
                         394 IsWow64Process
                         1DC GetCommandLineA
                          E0 CreateProcessA
                         5E6 WaitForSingleObject
                         243 GetExitCodeProcess
                         267 GetLastError
                         3D2 LocalFree
                         2EA GetSystemInfo
                         53F SetLastError
                         19C FindResourceW
                         58A SizeofResource
                         3CA LoadResource
                         3DE LockResource
                         3F2 MultiByteToWideChar
                         521 SetEnvironmentVariableA
                         3C6 LoadLibraryExW
                         1B1 FreeLibrary
                         3C7 LoadLibraryW
                         1DD GetCommandLineW
                         64F lstrlenW
                          B0 CreateActCtxW
                         444 QueryActCtxW
                         4B2 ReleaseActCtx
                         30F GetTickCount64
                         352 HeapFree
                         3EB MoveFileExW
                         111 DeleteCriticalSection
                         368 InitializeCriticalSectionAndSpinCount
                         135 EnterCriticalSection
                         3C0 LeaveCriticalSection
                         3CD LocalAlloc
                          99 CompareStringEx
                         3B1 LCIDToLocaleName
                         26A GetLocaleInfoEx
                         3B3 LCMapStringEx
                         355 HeapReAlloc
                         60D WideCharToMultiByte
                         18E FindNLSStringEx
                         384 IsNLSDefinedString
                           8 AddDllDirectory

    ADVAPI32.dll
             180037190 Import Address Table
             18004E768 Import Name Table
                     0 time date stamp
                     0 Index of first forwarder reference

                         215 OpenProcessToken
                         299 RegQueryValueExW
                         25B RegCloseKey
                         264 RegCreateKeyExW
                         293 RegQueryInfoKeyW
                         27D RegEnumValueW
                         2A9 RegSetValueExW
                         27A RegEnumKeyExW
                          83 ConvertStringSidToSidW
                         1A9 LookupAccountSidW
                         26A RegDeleteKeyExW
                         273 RegDeleteValueW
                         2A8 RegSetValueExA
                         281 RegGetValueW
                         285 RegLoadKeyW
                         2AC RegUnLoadKeyW
                         1AF LookupPrivilegeValueW
                          1F AdjustTokenPrivileges
                         170 GetTokenInformation
                         2FB StartServiceW
                          93 CreateWellKnownSid
                         250 QueryServiceStatus
                         28C RegOpenKeyExW

    RPCRT4.dll
             180037528 Import Address Table
             18004EB00 Import Name Table
                     0 time date stamp
                     0 Index of first forwarder reference

                         174 RpcBindingFromStringBindingW
                         20E RpcStringBindingComposeW
                          2E I_RpcExceptionFilter
                         16A RpcAsyncCompleteCall
                         16C RpcAsyncInitializeHandle
                         212 RpcStringFreeW
                         169 RpcAsyncCancelCall
                         172 RpcBindingFree
                          92 Ndr64AsyncClientCall
                         183 RpcBindingSetAuthInfoExW

    MPR.dll
             180037518 Import Address Table
             18004EAF0 Import Name Table
                     0 time date stamp
                     0 Index of first forwarder reference

                          2B WNetGetConnectionW

    SspiCli.dll
             1800375D0 Import Address Table
             18004EBA8 Import Name Table
                     0 time date stamp
                     0 Index of first forwarder reference

                          19 GetUserNameExW

    api-ms-win-core-apiquery-l1-1-0.dll
             1800376A8 Import Address Table
             18004EC80 Import Name Table
                     0 time date stamp
                     0 Index of first forwarder reference

                           0 ApiSetQueryApiSetPresence

  Section contains the following delay load imports:

    ext-ms-win-ntuser-windowstation-l1-1-0.dll
              00000001 Characteristics
      0000000180051C00 Address of HMODULE
      0000000180056000 Import Address Table
      000000018004E4B0 Import Name Table
      000000018004E540 Bound Import Name Table
      0000000000000000 Unload Import Name Table
                     0 time date stamp

                                    000000018000220A     6 GetThreadDesktop
                                    00000001800021F8     7 GetUserObjectInformationW
                                    0000000180002116     5 GetProcessWindowStation

    pcacli.dll
              00000001 Characteristics
      0000000180051C18 Address of HMODULE
      0000000180056020 Import Address Table
      000000018004E4D0 Import Name Table
      000000018004E560 Bound Import Name Table
      0000000000000000 Unload Import Name Table
                     0 time date stamp

                                    000000018000221C     3 PcaMonitorProcess

  Summary

        2000 .data
        1000 .didat
        3000 .pdata
       1B000 .rdata
        1000 .reloc
        2000 .rsrc
       35000 .text
