Microsoft (R) COFF/PE Dumper Version 14.29.30137.0
Copyright (C) Microsoft Corporation.  All rights reserved.


Dump of file C:\Windows\System32\AcSpecfc.dll

File Type: DLL

  Image has the following dependencies:

    apphelp.dll
    msvcrt.dll
    ntdll.dll
    api-ms-win-core-registry-l1-1-0.dll
    KERNEL32.dll
    ADVAPI32.dll
    ole32.dll
    msi.dll
    WINSPOOL.DRV

  Section contains the following exports for AcSpecfc.dll

    00000000 characteristics
    138A3120 time date stamp
        0.00 version
           1 ordinal base
           2 number of functions
           2 number of names

    ordinal hint RVA      name

          1    0 00008500 GetHookAPIs
          2    1 000085A0 NotifyShims

  Section contains the following imports:

    apphelp.dll
             18000A340 Import Address Table
             18000EDA8 Import Name Table
                     0 time date stamp
                     0 Index of first forwarder reference

                          1D SE_COM_AddServer
                          1F SE_COM_HookObject
                          20 SE_COM_Lookup
                          34 SE_ShimDPF
                          1C SE_COM_AddHook
                          2A SE_GetShimId

    msvcrt.dll
             18000A388 Import Address Table
             18000EDF0 Import Name Table
                     0 time date stamp
                     0 Index of first forwarder reference

                         494 memmove
                          5B __CxxFrameHandler3
                         38A _wcsicmp
                          4B _CxxThrowException
                          55 _XcptFilter
                         492 memcpy
                         50B wcsncmp
                         510 wcsrchr
                         394 _wcsnicmp
                         369 _vsnwprintf
                         501 wcschr
                         514 wcsstr
                         513 wcsspn
                         360 _vscwprintf
                         478 iswspace
                          57 __C_specific_handler
                          12 ??1type_info@@UEAA@XZ
                         17D _initterm
                         486 malloc
                         44C free
                          AE _amsg_exit
                         496 memset

    ntdll.dll
             18000A440 Import Address Table
             18000EEA8 Import Name Table
                     0 time date stamp
                     0 Index of first forwarder reference

                         2CB RtlAllocateHeap
                         3DD RtlFreeHeap
                         1DF NtQueryKey
                         5F2 RtlVirtualUnwind
                         4CA RtlLookupFunctionEntry
                         2EA RtlCaptureContext

    api-ms-win-core-registry-l1-1-0.dll
             18000A310 Import Address Table
             18000ED78 Import Name Table
                     0 time date stamp
                     0 Index of first forwarder reference

                          14 RegGetValueW
                          25 RegQueryValueExW
                           0 RegCloseKey
                          2E RegSetValueExW
                          1E RegOpenKeyExW

    KERNEL32.dll
             18000A180 Import Address Table
             18000EBE8 Import Name Table
                     0 time date stamp
                     0 Index of first forwarder reference

                         2B5 GetProcAddress
                         240 GetEnvironmentVariableW
                         522 SetEnvironmentVariableW
                          E5 CreateProcessW
                          86 CloseHandle
                         267 GetLastError
                         410 OpenProcess
                         3AA K32GetProcessImageFileNameW
                         39C K32EnumProcesses
                         58B Sleep
                         5E6 WaitForSingleObject
                         27E GetModuleHandleW
                         30E GetTickCount
                         2F0 GetSystemTimeAsFileTime
                         222 GetCurrentThreadId
                         450 QueryPerformanceCounter
                         59A TerminateProcess
                         21D GetCurrentProcess
                         57B SetUnhandledExceptionFilter
                         5BC UnhandledExceptionFilter
                         24C GetFileAttributesW
                         3CD LocalAlloc
                         32F GetWindowsDirectoryW
                         27A GetModuleFileNameW
                         3F2 MultiByteToWideChar
                         352 HeapFree
                         21E GetCurrentProcessId
                         3D2 LocalFree
                         324 GetVersionExW
                         5AD TlsFree
                         5AC TlsAlloc
                         5AE TlsGetValue
                         5AF TlsSetValue
                         2BB GetProcessHeap
                         34E HeapAlloc
                         27D GetModuleHandleExW
                         17B FindClose
                         186 FindFirstFileW
                         3EE MoveFileW
                         168 ExpandEnvironmentStringsW
                         164 ExitProcess
                         243 GetExitCodeProcess
                         4E6 SearchPathW
                         2E7 GetSystemDirectoryW
                         1DD GetCommandLineW
                          F2 CreateThread

    ADVAPI32.dll
             18000A128 Import Address Table
             18000EB90 Import Name Table
                     0 time date stamp
                     0 Index of first forwarder reference

                         251 QueryServiceStatusEx
                          6A ControlService
                         2FB StartServiceW
                         217 OpenSCManagerW
                         219 OpenServiceW
                          65 CloseServiceHandle
                         1D7 LsaOpenPolicy
                         1E0 LsaQueryInformationPolicy
                         1C3 LsaFreeMemory
                         129 EventWriteTransfer

    ole32.dll
             18000A478 Import Address Table
             18000EEE0 Import Name Table
                     0 time date stamp
                     0 Index of first forwarder reference

                          8B CoTaskMemAlloc
                          8C CoTaskMemFree

    msi.dll
             18000A378 Import Address Table
             18000EDE0 Import Name Table
                     0 time date stamp
                     0 Index of first forwarder reference

                             Ordinal   145

    WINSPOOL.DRV
             18000A2F8 Import Address Table
             18000ED60 Import Name Table
                     0 time date stamp
                     0 Index of first forwarder reference

                          96 OpenPrinterW
                          55 EnumFormsW

  Summary

        1000 .data
        1000 .pdata
        6000 .rdata
        1000 .reloc
        1000 .rsrc
        9000 .text
