Microsoft (R) COFF/PE Dumper Version 14.29.30137.0
Copyright (C) Microsoft Corporation.  All rights reserved.


Dump of file C:\Windows\System32\AuditNativeSnapIn.dll

File Type: DLL

  Image has the following dependencies:

    msvcrt.dll
    api-ms-win-core-com-l1-1-0.dll
    api-ms-win-core-libraryloader-l1-2-0.dll
    api-ms-win-core-heap-l1-1-0.dll
    api-ms-win-core-heap-l2-1-0.dll
    api-ms-win-core-errorhandling-l1-1-0.dll
    api-ms-win-core-synch-l1-2-0.dll
    api-ms-win-core-profile-l1-1-0.dll
    api-ms-win-core-processthreads-l1-1-0.dll
    api-ms-win-core-sysinfo-l1-1-0.dll
    api-ms-win-core-rtlsupport-l1-1-0.dll
    KERNEL32.dll
    USER32.dll

  Section contains the following exports for AuditNativeSnapIn.dll

    00000000 characteristics
    123FD788 time date stamp
        0.00 version
           1 ordinal base
           2 number of functions
           2 number of names

    ordinal hint RVA      name

          1    0 00001740 DllCanUnloadNow
          2    1 000015D0 DllGetClassObject

  Section contains the following imports:

    msvcrt.dll
             1800044E8 Import Address Table
             180005290 Import Name Table
                     0 time date stamp
                     0 Index of first forwarder reference

                         17D _initterm
                         29E _purecall
                          AE _amsg_exit
                          55 _XcptFilter
                          BF _callnewh
                         486 malloc
                         44C free
                          57 __C_specific_handler
                         496 memset

    api-ms-win-core-com-l1-1-0.dll
             1800043D0 Import Address Table
             180005178 Import Name Table
                     0 time date stamp
                     0 Index of first forwarder reference

                          40 CoTaskMemAlloc
                          49 CreateStreamOnHGlobal
                          41 CoTaskMemFree
                          51 StringFromCLSID

    api-ms-win-core-libraryloader-l1-2-0.dll
             180004450 Import Address Table
             1800051F8 Import Name Table
                     0 time date stamp
                     0 Index of first forwarder reference

                          1C LoadStringW
                           E FreeResource

    api-ms-win-core-heap-l1-1-0.dll
             180004418 Import Address Table
             1800051C0 Import Name Table
                     0 time date stamp
                     0 Index of first forwarder reference

                           2 HeapAlloc
                           6 HeapFree
                           0 GetProcessHeap

    api-ms-win-core-heap-l2-1-0.dll
             180004438 Import Address Table
             1800051E0 Import Name Table
                     0 time date stamp
                     0 Index of first forwarder reference

                           1 GlobalFree
                           0 GlobalAlloc

    api-ms-win-core-errorhandling-l1-1-0.dll
             1800043F8 Import Address Table
             1800051A0 Import Name Table
                     0 time date stamp
                     0 Index of first forwarder reference

                           5 GetLastError
                           F SetUnhandledExceptionFilter
                          11 UnhandledExceptionFilter

    api-ms-win-core-synch-l1-2-0.dll
             1800044C0 Import Address Table
             180005268 Import Name Table
                     0 time date stamp
                     0 Index of first forwarder reference

                          2D Sleep

    api-ms-win-core-profile-l1-1-0.dll
             180004490 Import Address Table
             180005238 Import Name Table
                     0 time date stamp
                     0 Index of first forwarder reference

                           0 QueryPerformanceCounter

    api-ms-win-core-processthreads-l1-1-0.dll
             180004468 Import Address Table
             180005210 Import Name Table
                     0 time date stamp
                     0 Index of first forwarder reference

                           D GetCurrentProcessId
                          4D TerminateProcess
                           C GetCurrentProcess
                          11 GetCurrentThreadId

    api-ms-win-core-sysinfo-l1-1-0.dll
             1800044D0 Import Address Table
             180005278 Import Name Table
                     0 time date stamp
                     0 Index of first forwarder reference

                          19 GetTickCount
                          15 GetSystemTimeAsFileTime

    api-ms-win-core-rtlsupport-l1-1-0.dll
             1800044A0 Import Address Table
             180005248 Import Name Table
                     0 time date stamp
                     0 Index of first forwarder reference

                           F RtlVirtualUnwind
                           9 RtlLookupFunctionEntry
                           2 RtlCaptureContext

    KERNEL32.dll
             180004398 Import Address Table
             180005140 Import Name Table
                     0 time date stamp
                     0 Index of first forwarder reference

                         64F lstrlenW

    USER32.dll
             1800043A8 Import Address Table
             180005150 Import Name Table
                     0 time date stamp
                     0 Index of first forwarder reference

                         255 LoadImageW
                         253 LoadIconW
                         2E7 RegisterClipboardFormatW
                         24D LoadBitmapW

  Summary

        2000 .data
        1000 .pdata
        2000 .rdata
        1000 .reloc
       32000 .rsrc
        3000 .text
