Microsoft (R) COFF/PE Dumper Version 14.29.30137.0
Copyright (C) Microsoft Corporation.  All rights reserved.


Dump of file C:\Windows\System32\FwRemoteSvr.dll

File Type: DLL

  Image has the following dependencies:

    fwbase.dll
    msvcrt.dll
    api-ms-win-eventing-classicprovider-l1-1-0.dll
    api-ms-win-core-errorhandling-l1-1-0.dll
    api-ms-win-core-heap-l2-1-0.dll
    RPCRT4.dll
    api-ms-win-core-processthreads-l1-1-0.dll
    api-ms-win-security-base-l1-1-0.dll
    api-ms-win-core-synch-l1-2-0.dll
    api-ms-win-core-profile-l1-1-0.dll
    api-ms-win-core-sysinfo-l1-1-0.dll
    api-ms-win-core-rtlsupport-l1-1-0.dll
    FirewallAPI.dll
    api-ms-win-core-delayload-l1-1-1.dll
    api-ms-win-core-delayload-l1-1-0.dll

  Image has the following delay load dependencies:

    api-ms-win-security-sddl-l1-1-0.dll

  Section contains the following exports for FwRemoteSvr.DLL

    00000000 characteristics
    3C62C2D7 time date stamp
        0.00 version
           1 ordinal base
           2 number of functions
           2 number of names

    ordinal hint RVA      name

          1    0 00001050 FwRpcAPIsInitialize
          2    1 000011B0 FwRpcAPIsShutdown

  Section contains the following imports:

    fwbase.dll
             180011E78 Import Address Table
             180016CD8 Import Name Table
                     0 time date stamp
                     0 Index of first forwarder reference

                           4 FwAlloc
                          2A FwFree
                          88 FwSizeTMultiply
                          8F FwStringCopy
                          3F FwHResultToWindowsError
                          1C FwCloseHandle

    msvcrt.dll
             180011EB0 Import Address Table
             180016D10 Import Name Table
                     0 time date stamp
                     0 Index of first forwarder reference

                         44C free
                          AE _amsg_exit
                          55 _XcptFilter
                         486 malloc
                         17D _initterm
                          57 __C_specific_handler
                         496 memset

    api-ms-win-eventing-classicprovider-l1-1-0.dll
             180011E58 Import Address Table
             180016CB8 Import Name Table
                     0 time date stamp
                     0 Index of first forwarder reference

                           5 TraceMessage

    api-ms-win-core-errorhandling-l1-1-0.dll
             180011D98 Import Address Table
             180016BF8 Import Name Table
                     0 time date stamp
                     0 Index of first forwarder reference

                           5 GetLastError
                           F SetUnhandledExceptionFilter
                          11 UnhandledExceptionFilter

    api-ms-win-core-heap-l2-1-0.dll
             180011DB8 Import Address Table
             180016C18 Import Name Table
                     0 time date stamp
                     0 Index of first forwarder reference

                           A LocalFree

    RPCRT4.dll
             180011CE0 Import Address Table
             180016B40 Import Name Table
                     0 time date stamp
                     0 Index of first forwarder reference

                         210 RpcStringBindingParseW
                         188 RpcBindingToStringBindingW
                          25 I_RpcBindingIsClientLocal
                         1E3 RpcServerUnregisterIfEx
                         18A RpcBindingVectorFree
                         195 RpcEpUnregister
                         1CC RpcServerInqBindings
                         1DE RpcServerRegisterIf3
                         1F4 RpcServerUseProtseqW
                         212 RpcStringFreeW
                         1DB RpcServerRegisterAuthInfoW
                         1D1 RpcServerInqDefaultPrincNameW
                         130 NdrServerCallAll
                         12F NdrServerCall2
                         1C8 RpcRevertToSelf
                         1A4 RpcImpersonateClient
                         178 RpcBindingInqAuthClientW
                         193 RpcEpRegisterW

    api-ms-win-core-processthreads-l1-1-0.dll
             180011DC8 Import Address Table
             180016C28 Import Name Table
                     0 time date stamp
                     0 Index of first forwarder reference

                          10 GetCurrentThread
                           3 OpenThreadToken
                           C GetCurrentProcess
                          4D TerminateProcess
                          11 GetCurrentThreadId
                           D GetCurrentProcessId

    api-ms-win-security-base-l1-1-0.dll
             180011E68 Import Address Table
             180016CC8 Import Name Table
                     0 time date stamp
                     0 Index of first forwarder reference

                           0 AccessCheck

    api-ms-win-core-synch-l1-2-0.dll
             180011E30 Import Address Table
             180016C90 Import Name Table
                     0 time date stamp
                     0 Index of first forwarder reference

                          2D Sleep

    api-ms-win-core-profile-l1-1-0.dll
             180011E00 Import Address Table
             180016C60 Import Name Table
                     0 time date stamp
                     0 Index of first forwarder reference

                           0 QueryPerformanceCounter

    api-ms-win-core-sysinfo-l1-1-0.dll
             180011E40 Import Address Table
             180016CA0 Import Name Table
                     0 time date stamp
                     0 Index of first forwarder reference

                          15 GetSystemTimeAsFileTime
                          19 GetTickCount

    api-ms-win-core-rtlsupport-l1-1-0.dll
             180011E10 Import Address Table
             180016C70 Import Name Table
                     0 time date stamp
                     0 Index of first forwarder reference

                         5F2 RtlVirtualUnwind
                         4CA RtlLookupFunctionEntry
                         2EA RtlCaptureContext

    FirewallAPI.dll
             180011B68 Import Address Table
             1800169C8 Import Name Table
                     0 time date stamp
                     0 Index of first forwarder reference

                          29 FWEnumProducts
                          5D FWSetConfig
                          42 FWGetConfig2
                          4E FWOpenPolicyStore
                          20 FWEnumAdapters
                          26 FWEnumNetworks
                          51 FWQueryCryptoSets
                          4F FWQueryAuthenticationSets
                          54 FWQueryMainModeRules
                          50 FWQueryConnectionSecurityRules
                          52 FWQueryFirewallRules
                          25 FWEnumMainModeRules
                          16 FWDeleteAllMainModeRules
                          1B FWDeleteMainModeRule
                          63 FWSetMainModeRule
                           8 FWAddMainModeRule
                          1D FWDeletePhase2SAs
                          41 FWGetConfig
                          1C FWDeletePhase1SAs
                          60 FWSetFirewallRule
                           7 FWAddFirewallRule
                           D FWClosePolicyStore
                           5 FWAddConnectionSecurityRule
                          5E FWSetConnectionSecurityRule
                          44 FWGetGlobalConfig2
                          15 FWDeleteAllFirewallRules
                          43 FWGetGlobalConfig
                          58 FWRestoreDefaults
                          18 FWDeleteConnectionSecurityRule
                          13 FWDeleteAllConnectionSecurityRules
                          22 FWEnumConnectionSecurityRules
                          24 FWEnumFirewallRules
                          61 FWSetGlobalConfig
                          1A FWDeleteFirewallRule
                           4 FWAddAuthenticationSet
                          17 FWDeleteAuthenticationSet
                          5C FWSetAuthenticationSet
                          12 FWDeleteAllAuthenticationSets
                          21 FWEnumAuthenticationSets
                           6 FWAddCryptoSet
                          28 FWEnumPhase2SAs
                          27 FWEnumPhase1SAs
                          23 FWEnumCryptoSets
                          14 FWDeleteAllCryptoSets
                          19 FWDeleteCryptoSet
                          5F FWSetCryptoSet

    api-ms-win-core-delayload-l1-1-1.dll
             180011D88 Import Address Table
             180016BE8 Import Name Table
                     0 time date stamp
                     0 Index of first forwarder reference

                           1 ResolveDelayLoadedAPI

    api-ms-win-core-delayload-l1-1-0.dll
             180011D78 Import Address Table
             180016BD8 Import Name Table
                     0 time date stamp
                     0 Index of first forwarder reference

                           0 DelayLoadFailureHook

  Section contains the following delay load imports:

    api-ms-win-security-sddl-l1-1-0.dll
              00000001 Characteristics
      0000000180018600 Address of HMODULE
      000000018001A000 Import Address Table
      00000001800167B8 Import Name Table
      0000000180016800 Bound Import Name Table
      0000000000000000 Unload Import Name Table
                     0 time date stamp

                                    0000000180009666     2 ConvertStringSecurityDescriptorToSecurityDescriptorW

  Summary

        1000 .data
        1000 .didat
        1000 .pdata
        E000 .rdata
        1000 .reloc
        1000 .rsrc
        9000 .text
