Microsoft (R) COFF/PE Dumper Version 14.29.30137.0
Copyright (C) Microsoft Corporation.  All rights reserved.


Dump of file C:\Windows\System32\mountvol.exe

File Type: EXECUTABLE IMAGE

  Image has the following dependencies:

    msvcrt.dll
    api-ms-win-core-file-l1-1-0.dll
    api-ms-win-core-kernel32-legacy-l1-1-1.dll
    api-ms-win-core-errorhandling-l1-1-0.dll
    api-ms-win-core-processenvironment-l1-1-0.dll
    ntdll.dll
    api-ms-win-core-io-l1-1-0.dll
    api-ms-win-core-localization-l1-2-0.dll
    api-ms-win-core-heap-l2-1-0.dll
    api-ms-win-core-file-l1-2-0.dll
    api-ms-win-core-console-l1-1-0.dll
    api-ms-win-core-handle-l1-1-0.dll
    api-ms-win-core-heap-l1-1-0.dll
    api-ms-win-core-string-l1-1-0.dll
    api-ms-win-core-string-obsolete-l1-1-0.dll
    api-ms-win-core-synch-l1-2-0.dll
    api-ms-win-core-rtlsupport-l1-1-0.dll
    api-ms-win-core-processthreads-l1-1-0.dll
    api-ms-win-core-libraryloader-l1-2-0.dll
    api-ms-win-core-profile-l1-1-0.dll
    api-ms-win-core-sysinfo-l1-1-0.dll

  Section contains the following imports:

    msvcrt.dll
             140003310 Import Address Table
             140003C70 Import Name Table
                     0 time date stamp
                     0 Index of first forwarder reference

                          90 __setusermatherr
                          C1 _cexit
                         17D _initterm
                          57 __C_specific_handler
                         10E _exit
                         492 memcpy
                         432 exit
                          8E __set_app_type
                          7F __getmainargs
                          AE _amsg_exit
                          55 _XcptFilter
                         127 _fmode
                          D2 _commode
                          2F ?terminate@@YAXXZ
                         369 _vsnwprintf
                         496 memset

    api-ms-win-core-file-l1-1-0.dll
             140003160 Import Address Table
             140003AC0 Import Name Table
                     0 time date stamp
                     0 Index of first forwarder reference

                           6 CreateFileW
                          16 FindFirstVolumeW
                          1C FindNextVolumeW
                           A DeleteVolumeMountPointW
                          48 QueryDosDeviceW
                          1D FindVolumeClose
                          5B WriteFile
                          4D RemoveDirectoryW
                           7 DefineDosDeviceW

    api-ms-win-core-kernel32-legacy-l1-1-1.dll
             140003210 Import Address Table
             140003B70 Import Name Table
                     0 time date stamp
                     0 Index of first forwarder reference

                          18 FindFirstVolumeMountPointW
                          19 FindNextVolumeMountPointW
                          1D FindVolumeMountPointClose
                          5C SetVolumeMountPointW

    api-ms-win-core-errorhandling-l1-1-0.dll
             140003130 Import Address Table
             140003A90 Import Name Table
                     0 time date stamp
                     0 Index of first forwarder reference

                           D SetLastError
                          11 UnhandledExceptionFilter
                           F SetUnhandledExceptionFilter
                           C SetErrorMode
                           5 GetLastError

    api-ms-win-core-processenvironment-l1-1-0.dll
             140003260 Import Address Table
             140003BC0 Import Name Table
                     0 time date stamp
                     0 Index of first forwarder reference

                           C GetStdHandle

    ntdll.dll
             140003398 Import Address Table
             140003CF8 Import Name Table
                     0 time date stamp
                     0 Index of first forwarder reference

                         1F1 NtQuerySystemInformation

    api-ms-win-core-io-l1-1-0.dll
             140003200 Import Address Table
             140003B60 Import Name Table
                     0 time date stamp
                     0 Index of first forwarder reference

                           4 DeviceIoControl

    api-ms-win-core-localization-l1-2-0.dll
             140003248 Import Address Table
             140003BA8 Import Name Table
                     0 time date stamp
                     0 Index of first forwarder reference

                          3D SetThreadUILanguage
                           9 FormatMessageW

    api-ms-win-core-heap-l2-1-0.dll
             1400031E8 Import Address Table
             140003B48 Import Name Table
                     0 time date stamp
                     0 Index of first forwarder reference

                           8 LocalAlloc
                           A LocalFree

    api-ms-win-core-file-l1-2-0.dll
             1400031B0 Import Address Table
             140003B10 Import Name Table
                     0 time date stamp
                     0 Index of first forwarder reference

                          44 GetVolumePathNamesForVolumeNameW
                          42 GetVolumeNameForVolumeMountPointW

    api-ms-win-core-console-l1-1-0.dll
             140003118 Import Address Table
             140003A78 Import Name Table
                     0 time date stamp
                     0 Index of first forwarder reference

                          13 WriteConsoleW
                           6 GetConsoleMode

    api-ms-win-core-handle-l1-1-0.dll
             1400031C8 Import Address Table
             140003B28 Import Name Table
                     0 time date stamp
                     0 Index of first forwarder reference

                           0 CloseHandle

    api-ms-win-core-heap-l1-1-0.dll
             1400031D8 Import Address Table
             140003B38 Import Name Table
                     0 time date stamp
                     0 Index of first forwarder reference

                           A HeapSetInformation

    api-ms-win-core-string-l1-1-0.dll
             1400032C8 Import Address Table
             140003C28 Import Name Table
                     0 time date stamp
                     0 Index of first forwarder reference

                           7 WideCharToMultiByte

    api-ms-win-core-string-obsolete-l1-1-0.dll
             1400032D8 Import Address Table
             140003C38 Import Name Table
                     0 time date stamp
                     0 Index of first forwarder reference

                           3 lstrcmpW

    api-ms-win-core-synch-l1-2-0.dll
             1400032E8 Import Address Table
             140003C48 Import Name Table
                     0 time date stamp
                     0 Index of first forwarder reference

                          2D Sleep

    api-ms-win-core-rtlsupport-l1-1-0.dll
             1400032A8 Import Address Table
             140003C08 Import Name Table
                     0 time date stamp
                     0 Index of first forwarder reference

                         4CA RtlLookupFunctionEntry
                         2EA RtlCaptureContext
                         5F2 RtlVirtualUnwind

    api-ms-win-core-processthreads-l1-1-0.dll
             140003270 Import Address Table
             140003BD0 Import Name Table
                     0 time date stamp
                     0 Index of first forwarder reference

                           C GetCurrentProcess
                          4D TerminateProcess
                           D GetCurrentProcessId
                          11 GetCurrentThreadId

    api-ms-win-core-libraryloader-l1-2-0.dll
             140003238 Import Address Table
             140003B98 Import Name Table
                     0 time date stamp
                     0 Index of first forwarder reference

                          14 GetModuleHandleW

    api-ms-win-core-profile-l1-1-0.dll
             140003298 Import Address Table
             140003BF8 Import Name Table
                     0 time date stamp
                     0 Index of first forwarder reference

                           0 QueryPerformanceCounter

    api-ms-win-core-sysinfo-l1-1-0.dll
             1400032F8 Import Address Table
             140003C58 Import Name Table
                     0 time date stamp
                     0 Index of first forwarder reference

                          15 GetSystemTimeAsFileTime
                          19 GetTickCount

  Summary

        1000 .data
        1000 .pdata
        2000 .rdata
        1000 .reloc
        1000 .rsrc
        2000 .text
