Microsoft (R) COFF/PE Dumper Version 14.29.30137.0
Copyright (C) Microsoft Corporation.  All rights reserved.


Dump of file C:\Windows\System32\rdpudd.dll

File Type: DLL

  Image has the following dependencies:

    WIN32K.SYS
    ntoskrnl.exe

  Section contains the following imports:

    WIN32K.SYS
             1C0018000 Import Address Table
             1C0018228 Import Name Table
                     0 time date stamp
                     0 Index of first forwarder reference

                          14 EngBugCheckEx
                          12 EngAssociateSurface
                          32 EngDeletePalette
                          37 EngDeleteSurface
                          47 EngFreeMem
                          A0 EngUnlockSurface
                          6B EngLockSurface
                           D EngAllocMem
                          21 EngCreateDeviceSurface
                          1E EngCreateBitmap
                          39 EngDeviceIoControl
                          4E EngGetCurrentThreadId
                          4D EngGetCurrentProcessId
                          25 EngCreatePalette
                          97 EngStrokePath
                          99 EngTextOut
                          13 EngBitBlt
                          1C EngCopyBits
                          BC PATHOBJ_bEnum
                          C3 PATHOBJ_vGetBounds
                          C1 PATHOBJ_vEnumStart
                          F6 XLATEOBJ_iXlate
                          82 EngQueryPerformanceCounter
                           6 CLIPOBJ_cEnumStart
                           5 CLIPOBJ_bEnum
                          83 EngQueryPerformanceFrequency
                          C4 RtlAnsiCharToUnicodeChar

    ntoskrnl.exe
             1C00180E0 Import Address Table
             1C0018308 Import Name Table
                     0 time date stamp
                     0 Index of first forwarder reference

                         A38 ZwOpenProcessTokenEx
                         A5E ZwQueryInformationToken
                         9E3 ZwClose
                         A3B ZwOpenSection
                         805 RtlInitializeSid
                         84F RtlMapGenericMask
                         8B5 RtlSubAuthoritySid
                         8A1 RtlSetDaclSecurityDescriptor
                         556 MmUnmapViewInSystemSpace
                         2DD IoGetFileObjectGenericMapping
                         4C3 KeWaitForMultipleObjects
                         5F8 ObfDereferenceObject
                         9F8 ZwCreateSection
                         530 MmMapViewInSystemSpace
                         7FC RtlInitUnicodeString
                         2D5 IoGetDeviceObjectPointer
                         842 RtlLengthSid
                         840 RtlLengthRequiredSid
                         719 RtlAddAccessAllowedAce
                         49C KeSetEvent
                         5E8 ObReferenceObjectByHandle
                         675 PsGetCurrentProcessSessionId
                          9C ExAllocatePoolWithTag
                         763 RtlCreateAcl
                          C3 ExFreePoolWithTag
                         76A RtlCreateSecurityDescriptor
                         927 SeExports
                         29F IoCreateSynchronizationEvent
                         A36 ZwOpenProcess
                         849 RtlLookupElementGenericTableAvl

  Summary

        3000 .data
        1000 .idata
        1000 .pdata
        3000 .rdata
        1000 .reloc
        1000 .rsrc
       10000 .text
        1000 GFIDS
