Microsoft (R) COFF/PE Dumper Version 14.29.30137.0
Copyright (C) Microsoft Corporation.  All rights reserved.


Dump of file C:\Windows\System32\SgrmEnclave_secure.dll

File Type: DLL

  Image has the following dependencies:

    ucrtbase_enclave.dll
    bcrypt.dll
    vertdll.dll

  Section contains the following exports for SgrmEnclave_secure.dll

    00000000 characteristics
    41A48171 time date stamp
        0.00 version
           1 ordinal base
          11 number of functions
          11 number of names

    ordinal hint RVA      name

          1    0 0000E7D0 EngHostAttest
          2    1 0000E590 EngHostCreateAttestationClient
          3    2 0000E6D0 EngHostDestroyAttestationClient
          4    3 0000D650 EngHostDispatchThread
          5    4 0000CF20 EngHostGetReport
          6    5 0000DA40 EngHostGetRuntimeReport
          7    6 0000E400 EngHostGetSessionCertificate
          8    7 0000D8B0 EngHostGetSessionReport
          9    8 0000C750 EngHostInitialize
         10    9 0000D7C0 EngHostNotify
         11    A 0000CDD0 EngHostShutdown

  Section contains the following imports:

    ucrtbase_enclave.dll
             180046728 Import Address Table
             180055098 Import Name Table
                     0 time date stamp
                     0 Index of first forwarder reference

                          12 __CxxFrameHandler3
                          26 __std_exception_destroy
                          25 __std_exception_copy
                          27 __std_terminate
                           C __C_specific_handler
                          29 __std_type_info_destroy_list
                           1 _CxxThrowException
                          3B memmove
                         1F2 free
                          4B _cexit
                          56 _crt_atexit
                          67 _execute_onexit_table
                          E0 _register_onexit_function
                          90 _initialize_onexit_table
                          E8 _seh_filter_dll
                         237 malloc
                          49 _callnewh
                          92 _initterm_e
                          91 _initterm
                          3A memcpy
                          39 memcmp
                          1C __RTDynamicCast
                         294 tan
                         279 strcmp
                         274 sqrt
                         270 sin
                         256 pow
                         244 memset
                         225 log10
                         224 log
                         1F0 fmod
                         1E5 floor
                         1D2 exp
                         1AE cos
                         19A ceil
                         169 atan2
                         163 asin
                         15E acos
                          37 longjmp
                          3E strchr
                          38 memchr
                         288 strtod
                         15C abort
                         276 srand
                         25C rand
                         170 atoi
                         1FE isdigit
                         174 bsearch_s
                          1F __stdio_common_vsprintf_s
                         2AA wcscpy_s
                         2B2 wcsnlen
                          94 _invalid_parameter_noinfo_noreturn
                          21 __stdio_common_vswprintf
                          65 _errno
                         27B strcpy_s
                          1B __stdio_common_vsnprintf_s
                          93 _invalid_parameter_noinfo
                         29D toupper
                         1FA isalnum
                         287 strspn
                         282 strncmp
                         27D strerror
                         286 strpbrk
                         1FF isgraph
                         205 isupper
                         29C tolower
                         1FB isalpha
                         214 isxdigit
                         223 localeconv
                         1FD iscntrl
                         204 isspace
                         203 ispunct
                         201 islower
                         22A log2
                         1F3 frexp
                          21 __intrinsic_setjmp

    bcrypt.dll
             180046680 Import Address Table
             180054FF0 Import Name Table
                     0 time date stamp
                     0 Index of first forwarder reference

                          1A BCryptFinalizeKeyPair
                          1E BCryptGenerateKeyPair
                          19 BCryptExportKey
                          36 BCryptSignHash
                          1F BCryptGenerateSymmetricKey
                          12 BCryptEncrypt
                           8 BCryptDecrypt
                          26 BCryptKeyDerivation
                          27 BCryptOpenAlgorithmProvider
                           6 BCryptCreateHash
                          23 BCryptHashData
                           D BCryptDestroyHash
                          1B BCryptFinishHash
                          25 BCryptImportKeyPair
                          39 BCryptVerifySignature
                           E BCryptDestroyKey
                          22 BCryptHash
                           2 BCryptCloseAlgorithmProvider
                          1D BCryptGenRandom
                          21 BCryptGetProperty

    vertdll.dll
             180046990 Import Address Table
             180055300 Import Name Table
                     0 time date stamp
                     0 Index of first forwarder reference

                          28 GetLastError
                          2B GetProcAddress
                          2A GetModuleHandleExW
                          90 TryAcquireSRWLockExclusive
                          35 HeapDestroy
                          10 EnterCriticalSection
                          4A LeaveCriticalSection
                          3E InitializeCriticalSectionEx
                           7 DeleteCriticalSection
                          3B InitializeConditionVariable
                          99 WakeAllConditionVariable
                          88 SleepConditionVariableCS
                          38 HeapReAlloc
                          34 HeapCreate
                          24 GetCurrentThread
                          7F RtlTimeFieldsToTime
                          3F InitializeSListHead
                          85 SetLastError
                          87 SetUnhandledExceptionFilter
                           C EnclaveGetEnclaveInformation
                          2C GetProcessHeap
                           1 AcquireSRWLockShared
                          32 HeapAlloc
                          63 ReleaseSRWLockShared
                          56 OutputDebugStringW
                          25 GetCurrentThreadId
                           B EnclaveGetAttestationReport
                          36 HeapFree
                           0 AcquireSRWLockExclusive
                          62 ReleaseSRWLockExclusive
                           2 CallEnclave
                          40 InitializeSRWLock

  Summary

        4000 .data
        4000 .pdata
       11000 .rdata
        1000 .reloc
        1000 .rsrc
       42000 .text
        2000 PAGE
        4000 PAGECONS
        1000 PAGEDATA
