Microsoft (R) COFF/PE Dumper Version 14.29.30137.0
Copyright (C) Microsoft Corporation.  All rights reserved.


Dump of file C:\Windows\WinSxS\amd64_netfx4-mscordbi_dll_b03f5f7f11d50a3a_4.0.15713.0_none_0695449b096113e3\mscordbi.dll

File Type: DLL

  Image has the following dependencies:

    ole32.dll
    OLEAUT32.dll
    ntdll.dll
    KERNEL32.dll
    USER32.dll
    ADVAPI32.dll
    WTSAPI32.dll

  Section contains the following exports for mscordbi.dll

    00000000 characteristics
    5B693844 time date stamp Mon Aug  6 23:12:20 2018
        0.00 version
           1 ordinal base
           5 number of functions
           5 number of names

    ordinal hint RVA      name

          1    0 00001140 CreateCordbObject
          2    1 00001170 DllGetClassObjectInternal
          3    2 00001760 OpenVirtualProcess
          4    3 00001710 OpenVirtualProcess2
          5    4 00001500 OpenVirtualProcessImpl

  Section contains the following imports:

    ole32.dll
             18010E508 Import Address Table
             180178C90 Import Name Table
                     0 time date stamp
                     0 Index of first forwarder reference

                         12E IIDFromString
                          1C CoCreateGuid
                          9C CreateStreamOnHGlobal
                          7D CoTaskMemFree
                          7C CoTaskMemAlloc
                          1B CoCreateFreeThreadedMarshaler

    OLEAUT32.dll
             18010E478 Import Address Table
             180178C00 Import Name Table
                     0 time date stamp
                     0 Index of first forwarder reference

                             Ordinal   202
                             Ordinal     8
                             Ordinal   201

    ntdll.dll
             18010E4D0 Import Address Table
             180178C58 Import Name Table
                     0 time date stamp
                     0 Index of first forwarder reference

                         2B0 RtlCaptureContext
                         53F RtlUnwindEx
                         556 RtlVirtualUnwind
                         44F RtlLookupFunctionEntry
                         471 RtlPcToFileHeader
                         5E0 VerSetConditionMask

    KERNEL32.dll
             18010E088 Import Address Table
             180178810 Import Name Table
                     0 time date stamp
                     0 Index of first forwarder reference

                         4B9 ResumeThread
                         13D DuplicateHandle
                         100 CreateThread
                         309 GetThreadContext
                         57E TerminateProcess
                         115 DebugBreak
                         547 SetThreadContext
                          AA ContinueDebugEvent
                         3C5 LoadLibraryExW
                         1BE FreeLibrary
                         40B OpenProcess
                         49B ReleaseMutex
                         45F ReadProcessMemory
                          D6 CreateFileW
                         25B GetFileSize
                          D3 CreateFileMappingW
                         3DE MapViewOfFile
                         5A3 UnmapViewOfFile
                         56E Sleep
                         109 CreateToolhelp32Snapshot
                         58E Thread32First
                         58F Thread32Next
                         3E3 Module32FirstW
                         3E5 Module32NextW
                         283 GetModuleFileNameW
                         5C4 VirtualQueryEx
                         113 DebugActiveProcess
                         5C8 WaitForDebugEvent
                         413 OpenThread
                         22A GetCurrentProcessId
                         395 IsWow64Process
                         60A WriteProcessMemory
                         356 HeapAlloc
                         35A HeapFree
                         2C1 GetProcessHeap
                         43F QueryPerformanceCounter
                         2FB GetSystemTimeAsFileTime
                         525 SetLastError
                         440 QueryPerformanceFrequency
                         44C RaiseException
                         5BA VerifyVersionInfoW
                         2F5 GetSystemInfo
                         418 OutputDebugStringW
                         249 GetEnvironmentVariableW
                         247 GetEnvironmentStringsW
                         1BD FreeEnvironmentStringsW
                         5ED WideCharToMultiByte
                         3EF MultiByteToWideChar
                         579 SwitchToThread
                         1D3 GetCPInfo
                         1BA FormatMessageW
                         384 IsDBCSLeadByte
                         577 SuspendThread
                         3D0 LocalFree
                         3B4 LCMapStringW
                          EF CreateProcessW
                          E5 CreateMutexW
                         592 TlsGetValue
                         5C3 VirtualQuery
                         571 SleepEx
                         5CC WaitForSingleObjectEx
                         5BE VirtualFree
                         593 TlsSetValue
                         359 HeapDestroy
                         358 HeapCreate
                         362 HeapValidate
                         49F ReleaseSemaphore
                         287 GetModuleHandleW
                          F5 CreateSemaphoreW
                         5C1 VirtualProtect
                         590 TlsAlloc
                         591 TlsFree
                         50A SetErrorMode
                          BC CreateActCtxW
                           3 ActivateActCtx
                         111 DeactivateActCtx
                         499 ReleaseActCtx
                         386 IsDebuggerPresent
                         337 GetWindowsDirectoryW
                         140 EncodePointer
                         118 DecodePointer
                         1E8 GetCommandLineA
                         38B IsProcessorFeaturePresent
                         173 ExitProcess
                         286 GetModuleHandleExW
                         2E4 GetStdHandle
                         25E GetFileType
                         2DE GetStartupInfoW
                         282 GetModuleFileNameA
                         5A0 UnhandledExceptionFilter
                         55F SetUnhandledExceptionFilter
                         36F InitializeCriticalSectionAndSpinCount
                         390 IsValidCodePage
                         2A7 GetOEMCP
                         35F HeapSize
                         2E9 GetStringTypeW
                         1B3 FlushFileBuffers
                         601 WriteFile
                         1FC GetConsoleCP
                         20E GetConsoleMode
                         35D HeapReAlloc
                         518 SetFilePointerEx
                         53D SetStdHandle
                         600 WriteConsoleW
                         403 OpenFileMappingW
                         252 GetFileAttributesExW
                         517 SetFilePointer
                         45C ReadFile
                         1B4 FlushInstructionCache
                         229 GetCurrentProcess
                         22E GetCurrentThreadId
                         4B2 ResetEvent
                         270 GetLastError
                         50B SetEvent
                          CA CreateEventW
                         36E InitializeCriticalSection
                          8E CloseHandle
                         144 EnterCriticalSection
                         3C0 LeaveCriticalSection
                         5CA WaitForMultipleObjectsEx
                         11F DeleteCriticalSection
                         2BC GetProcAddress
                         5CB WaitForSingleObject
                         1C4 GetACP
                         5BB VirtualAlloc

    USER32.dll
             18010E498 Import Address Table
             180178C20 Import Name Table
                     0 time date stamp
                     0 Index of first forwarder reference

                         1B9 GetUserObjectInformationW
                         194 GetProcessWindowStation
                         233 LoadStringW

    ADVAPI32.dll
             18010E000 Import Address Table
             180178788 Import Name Table
                     0 time date stamp
                     0 Index of first forwarder reference

                         118 EqualSid
                          85 CopySid
                         149 GetKernelObjectSecurity
                         15F GetSecurityDescriptorOwner
                         14A GetLengthSid
                         16F GetTokenInformation
                         2BB ReportEventW
                          EB DeregisterEventSource
                         2AB RegisterEventSourceW
                         258 RegCloseKey
                         296 RegQueryValueExW
                         123 EventWrite
                          1F AdjustTokenPrivileges
                         212 OpenProcessToken
                         1AD LookupPrivilegeValueW
                         289 RegOpenKeyExW

    WTSAPI32.dll
             18010E4B8 Import Address Table
             180178C40 Import Name Table
                     0 time date stamp
                     0 Index of first forwarder reference

                           C WTSEnumerateProcessesW
                          13 WTSFreeMemory

  Summary

        5000 .data
        B000 .pdata
       6C000 .rdata
        3000 .reloc
        1000 .rsrc
      10D000 .text
