Microsoft (R) COFF/PE Dumper Version 14.29.30137.0
Copyright (C) Microsoft Corporation.  All rights reserved.


Dump of file C:\Windows\WinSxS\amd64_microsoft-windows-win32kbase_31bf3856ad364e35_10.0.17763.1_none_9f3c2fadbee6c88b\win32kbase.sys

File Type: EXECUTABLE IMAGE

  Image has the following dependencies:

    watchdog.sys
    msrpc.sys
    ext-ms-win-moderncore-win32k-base-ntgdi-l1-1-0.dll
    ext-ms-win-moderncore-win32k-base-ntuser-l1-1-0.dll
    ext-ms-win-moderncore-win32k-base-sysentry-l1-1-0.dll
    ext-ms-win-ntos-werkernel-l1-1-1.dll
    WppRecorder.sys
    ksecdd.sys
    dxgkrnl.sys
    ntoskrnl.exe
    HAL.dll

  Section contains the following imports:

    watchdog.sys
             1C0203728 Import Address Table
             1C0207038 Import Name Table
                     0 time date stamp
                     0 Index of first forwarder reference

                          1B SMgrNotifySessionChange
                          1C SMgrRegisterGdiCallout
                           E DisplayScenarioJournalFinalize
                          16 DisplayScenarioJournalSetUniqueness
                          15 DisplayScenarioJournalSetSpecializedData
                           9 DisplayScenarioJounralSetTSDDDState
                          10 DisplayScenarioJournalSetActualPathModality
                           F DisplayScenarioJournalRetry
                          12 DisplayScenarioJournalSetExpectedPathModality
                          31 WdDiagNotifyUser
                          13 DisplayScenarioJournalSetSDCPathsAndModes
                           A DisplayScenarioJournalBegin
                          42 WdLogEvent5_WdLowResource
                          4F WdLogNewEntry5_WdLowResource
                           6 DisplayRestoreVidPnJournalBegin
                          52 WdLogNewEntry5_WdTrace
                           D DisplayScenarioJournalDisplayUniquenessIncremented
                          3C WdLogEvent5_WdAssertion
                          49 WdLogNewEntry5_WdAssertion
                          46 WdLogEvent5_WdWarning
                          45 WdLogEvent5_WdTrace
                          53 WdLogNewEntry5_WdWarning
                          41 WdLogEvent5_WdEvent
                          4E WdLogNewEntry5_WdEvent
                          40 WdLogEvent5_WdError
                          4D WdLogNewEntry5_WdError
                          3A WdInitialize
                           7 DisplayRestoreVidPnJournalFinalize

    msrpc.sys
             1C0202988 Import Address Table
             1C0206298 Import Name Table
                     0 time date stamp
                     0 Index of first forwarder reference

                          34 RpcAsyncCompleteCall
                          39 RpcBindingCreateW
                          36 RpcAsyncInitializeHandle
                          37 RpcBindingBind
                          38 RpcBindingCopy
                          33 RpcAsyncCancelCall
                           9 I_RpcGetCompleteAndFreeRoutine
                          3A RpcBindingFree
                          3F RpcBindingUnbind
                           4 I_RpcExceptionFilter
                          16 Ndr64AsyncClientCall

    ext-ms-win-moderncore-win32k-base-ntgdi-l1-1-0.dll
             1C0200078 Import Address Table
             1C0203988 Import Name Table
                     0 time date stamp
                     0 Index of first forwarder reference

                           A DwmAsyncSetChildRootVisual
                           9 DwmAsyncRegisterSharedVirtualDesktopVisual
                           8 DwmAsyncRegisterSharedThumbnailVisualApiExt
                         150 vInitFontsDirectoryNameInformation
                          FB IsvInitFontsDirectoryNameInformationSupported
                         13E bInitRedirDev
                          E9 IsbInitRedirDevSupported
                          22 EnableHalftone
                          7A IsEnableHalftoneSupported
                          30 GetNineGridRenderingData
                          BA IsNineGridRenderingSupported
                          5A InitializeGdiCrossSessionGlobals
                          B0 IsInitializeGdiCrossSessionGlobalsSupported
                         130 VerifierInitialization
                          DB IsVerifierInitializationSupported
                         140 bInitializeEUDC
                          EB IsbInitializeEUDCSupported
                         151 vInitMapper
                          FC IsvInitMapperSupported
                         14E vInitFontMapperFamilyFallbackTable
                          F9 IsvInitFontMapperFamilyFallbackTableSupported
                         14F vInitFontSubTable
                          FA IsvInitFontSubTableSupported
                         13F bInitStockFonts
                          EA IsbInitStockFontsSupported
                         13D bInitFontTables
                           0 CheckAndProcessSurfaceComplete
                          44 GreDwmDesktopOverlaysEnabled
                          BC IsNtGdiFlushUserBatchSupported
                         110 NtGdiFlushUserBatch
                          53 GreSelectFont
                          54 GreSelectRedirectionBitmap
                         141 bSetDevDragRect
                          EC IsbSetDevDragRectSupported
                          A1 IsGreIsCurrentProcessSystemCriticalSupported
                          4C GreIsCurrentProcessSystemCritical
                          AB IsGreWaitForTextReadySupported
                          56 GreWaitForTextReady
                          A9 IsGreSelectRedirectionBitmapSupported
                          A8 IsGreSelectFontSupported
                          A0 IsGreHintDCWndSupported
                          4B GreHintDCWnd
                          9E IsGreHidePointerSupported
                          49 GreHidePointer
                          B3 IsMulDestroyBrushInternalSupported
                         108 MulDestroyBrushInternal
                         139 XEPATHOBJ_vConstructHPATHWrap
                          E4 IsXEPATHOBJ_vConstructHPATHSupported
                         13A XEPATHOBJ_vDestructWrap
                          E5 IsXEPATHOBJ_vDestructSupported
                         119 RFONTOBJ_vConstructPRFONTWrap
                          C4 IsRFONTOBJ_vConstructPRFONTSupported
                         118 RFONTOBJ_dtHelperWrap
                          C3 IsRFONTOBJ_dtHelperSupported
                          E2 IsXDCOBJ_vCleanupColorTransformSupported
                         137 XDCOBJ_vCleanupColorTransformWrap
                          C1 IsPFTOBJ_bUnloadWorkhorseSupported
                         116 PFTOBJ_bUnloadWorkhorseWrap
                          E3 IsXDCOBJ_vSetDefaultFontSupported
                         138 XDCOBJ_vSetDefaultFontWrap
                          A2 IsGreMovePointerSupported
                          4D GreMovePointer
                         142 bSpEnableSprites
                         14C vEnableSynchronize
                           5 DEVLOCKOBJ_bPrepareTrgDcoWrap
                          5F IsDEVLOCKOBJ_bPrepareTrgDcoSupported
                         129 UntrapAppContainerRenderingWrap
                          D4 IsUntrapAppContainerRenderingSupported
                           4 DEVLOCKOBJ_bDisposeTrgDcoWrap
                          5E IsDEVLOCKOBJ_bDisposeTrgDcoSupported
                          C2 IsPanningGetFunctionTableSupported
                         117 PanningGetFunctionTable
                          BE IsPDEVOBJ_bCreateHalftoneBrushesSupported
                         113 PDEVOBJ_bCreateHalftoneBrushesWrap
                          BD IsPDEVOBJ_bCreateDefaultBrushesSupported
                         112 PDEVOBJ_bCreateDefaultBrushesWrap
                          8D IsGetgbFinishDefGUIFontInitSupported
                          36 GetgbFinishDefGUIFontInit
                          7E IsFinishStockFontInitSupported
                          26 FinishStockFontInit
                          F5 IsvConvertLogFontWSupported
                         14A vConvertLogFontW
                          EE IshfontCreateSupported
                         143 hfontCreate
                          BF IsPDEVOBJ_bDisableHalftoneSupported
                         114 PDEVOBJ_bDisableHalftoneWrap
                          23 EngBitBlt
                         14B vDisableSynchronize
                         100 IsvSpDisableSpritesSupported
                         156 vSpDisableSpritesWrap
                          C5 IsRFONTOBJ_vDeleteRFONTSupported
                         11A RFONTOBJ_vDeleteRFONTWrap
                          3A GetgpPFTDeviceWrap
                          91 IsGetgpPFTDeviceSupported
                          5D IsDEVICE_PFTOBJ_pPFFGetSupported
                           3 DEVICE_PFTOBJ_pPFFGetWrap
                         106 IsvUnmapRemoteFontsSupported
                         15D vUnmapRemoteFonts
                          F2 IsvCleanupOwnedRedirectionDeviceBitmapsSupported
                         147 vCleanupOwnedRedirectionDeviceBitmapsWrap
                         13B bDeleteFont
                          CE IsUMPD_ldevUnloadImageSupported
                         123 UMPD_ldevUnloadImageWrap
                          4A GreHideSprites
                          EF IsvAccNotifyDeleteSurfaceSupported
                         144 vAccNotifyDeleteSurfaceWrap
                          CA IsUMPDDrvDeleteDeviceBitmapSupported
                         11F UMPDDrvDeleteDeviceBitmap
                          CB IsUMPDEngFreeUserMemSupported
                         120 UMPDEngFreeUserMem
                          9A IsGreDeleteWndSupported
                          43 GreDeleteWnd
                          BB IsNtGdiFastPolyPolylineSupported
                         10F NtGdiFastPolyPolyline
                          A5 IsGrePolyPolygonSupported
                          50 GrePolyPolygon
                          A6 IsGrePolyPolylineSupported
                          51 GrePolyPolyline
                          A3 IsGrePolyBezierSupported
                          4E GrePolyBezier
                          A7 IsGrePolylineToSupported
                          52 GrePolylineTo
                          A4 IsGrePolyBezierToSupported
                          4F GrePolyBezierTo
                          9B IsGreFlushSupported
                          46 GreFlush
                          2F GetMaxGdiHandleCount
                          41 GetgvsStateWrap
                          82 IsGdiMultiUserFontCleanupSupported
                          2A GdiMultiUserFontCleanup
                          94 IsGetgpfsTableSupported
                          3D GetgpfsTable
                          93 IsGetgpfmffTableSupported
                          3C GetgpfmffTable
                          86 IsGetMAPPER_SignatureTableSupported
                          2E GetMAPPER_SignatureTable
                          97 IsGetgpwszFamilyDefaultFontsSupported
                          40 GetgpwszFamilyDefaultFonts
                          B9 IsMultiUserGreDeleteScriptsSupported
                         10E MultiUserGreDeleteScripts
                          90 IsGetgpDefITableSupported
                          39 GetgpDefITable
                          92 IsGetgpRedirDevSupported
                          3B GetgpRedirDev
                          8F IsGetgpBmpDevSupported
                          38 GetgpBmpDev
                          B8 IsMultiUserCleanupPathAllocSupported
                         10D MultiUserCleanupPathAlloc
                          FE IsvNetworkedFontFileCleanupSupported
                         153 vNetworkedFontFileCleanup
                         105 IsvTrustedFontFileTableCleanupSupported
                         15C vTrustedFontFileTableCleanup
                          DA IsVerifierEngFreeMemSupported
                         12F VerifierEngFreeMem
                          7D IsEngFreeModuleSupported
                          25 EngFreeModule
                         15A vSpEnableMultiMon
                         155 vSpDisableMultiMon
                          B4 IsMulGetAdditionalFunctionTableSupported
                         109 MulGetAdditionalFunctionTable
                         11D TrapAppContainerRenderingWrap
                          C8 IsTrapAppContainerRenderingSupported
                          84 IsGetColorManagementCapsSupported
                          2C GetColorManagementCapsWrap
                          E6 IsbDeleteFontSupported
                          45 GreEnsureDpiDepDefaultGuiFontForPlateau
                          D9 IsUserResetPointerSupported
                         12E UserResetPointer
                         104 IsvSpUnTearDownSpritesSupported
                         15B vSpUnTearDownSprites
                          B1 IsIsDwmActiveSupported
                          62 IsDwmActive
                          74 IsDxgkEngQueryWin32InfoPlatformSupported
                          1C DxgkEngQueryWin32InfoPlatform
                          73 IsDxgkEngLockVisRgnSupported
                          1B DxgkEngLockVisRgn
                          78 IsDxgkEngUnlockVisRgnSupported
                          20 DxgkEngUnlockVisRgn
                          66 IsDxgkEngAcquireStableVisRgnSupported
                           E DxgkEngAcquireStableVisRgn
                          77 IsDxgkEngReleaseStableVisRgnSupported
                          1F DxgkEngReleaseStableVisRgn
                          65 IsDxgkEngAcquireStableSpriteSupported
                           D DxgkEngAcquireStableSprite
                          76 IsDxgkEngReleaseStableSpriteSupported
                          1E DxgkEngReleaseStableSprite
                          79 IsDxgkEngWatchVisRgnChangeSupported
                          21 DxgkEngWatchVisRgnChange
                          6B IsDxgkEngGetClientRectSupported
                          13 DxgkEngGetClientRect
                          70 IsDxgkEngGetWindowRectSupported
                          18 DxgkEngGetWindowRect
                          72 IsDxgkEngIsRedirectionDCSupported
                          1A DxgkEngIsRedirectionDC
                          6F IsDxgkEngGetRgnDataSupported
                          17 DxgkEngGetRgnData
                          6A IsDxgkEngDetectGDIPathSupported
                          12 DxgkEngDetectGDIPath
                          68 IsDxgkEngBltViaGDISupported
                          10 DxgkEngBltViaGDI
                          11 DxgkEngColorFillViaGDI
                          6D IsDxgkEngGetRedirBitmapSharedHandleSupported
                          15 DxgkEngGetRedirBitmapSharedHandle
                          67 IsDxgkEngAddRedirBitmapD3DDirtyRgnSupported
                           F DxgkEngAddRedirBitmapD3DDirtyRgn
                          64 IsDxgkEngAccumD3DPresentBoundsSupported
                           C DxgkEngAccumD3DPresentBounds
                          16 DxgkEngGetRemoteDeviceCount
                          6C IsDxgkEngGetDCSupported
                          14 DxgkEngGetDC
                          75 IsDxgkEngReleaseDCSupported
                          1D DxgkEngReleaseDC
                          9D IsGreGetRandomRgnSupported
                          48 GreGetRandomRgn
                          71 IsDxgkEngIsDwmProcessSupported
                          19 DxgkEngIsDwmProcess
                          D7 IsUserGetRedirectedWindowOriginSupported
                         12C UserGetRedirectedWindowOrigin
                          DC IsW32kCddClipRegionSupported
                         131 W32kCddClipRegion
                          E1 IsW32kGenerateMoveDataSupported
                         136 W32kGenerateMoveData
                          DE IsW32kCddIsNullBrushSupported
                         133 W32kCddIsNullBrush
                          DD IsW32kCddDisableGdiHwAccelerationSupported
                         132 W32kCddDisableGdiHwAcceleration
                          DF IsW32kCddLineToSupported
                         134 W32kCddLineTo
                          E0 IsW32kCddStrokePathSupported
                         135 W32kCddStrokePath
                          AE IsHWCursorUpdatePointerSupported
                          FD IsvMirrorIncludeNotifySupported
                         152 vMirrorIncludeNotifyWrap
                          7C IsEngCopyBitsSupported
                          24 EngCopyBits
                         11B SFMLOGICALSURFACEREF_vDestructorWrap
                          C6 IsSFMLOGICALSURFACEREF_vDestructorSupported
                          C7 IsSFMLOGICALSURFACE_CreateHLSURFCloneSupported
                         11C SFMLOGICALSURFACE_CreateHLSURFCloneWrap
                         102 IsvSpDwmMigrateSpriteLSurfReferenceSupported
                         158 vSpDwmMigrateSpriteLSurfReferenceWrap
                         101 IsvSpDwmMigrateLSurfShapeReferenceSupported
                         157 vSpDwmMigrateLSurfShapeReferenceWrap
                          B7 IsMulReplaceRedirectionChildSupported
                         10C MulReplaceRedirectionChild
                          D8 IsUserRecreateRedirectionBitmapSupported
                         12D UserRecreateRedirectionBitmap
                          B5 IsMulProcessChildRedirectionDfbSurfaces2Supported
                         10B MulProcessChildRedirectionDfbSurfaces2
                          B6 IsMulProcessChildRedirectionDfbSurfacesSupported
                         10A MulProcessChildRedirectionDfbSurfaces
                          63 IsDwmDestroyDeviceSpecificResourcesSupported
                           B DwmDestroyDeviceSpecificResources
                          CD IsUMPD_ldevLoadDriverSupported
                         122 UMPD_ldevLoadDriverWrap
                          F6 IsvDisableSynchronizeSupported
                         103 IsvSpDynamicModeChangeSupported
                         159 vSpDynamicModeChange
                          7F IsFinishStockFontReinitSupported
                          27 FinishStockFontReinit
                          D5 IsUpdateGammaRampOnDeviceSupported
                         12A UpdateGammaRampOnDevice
                           7 DrvRealizeHalftonePaletteWrap
                          61 IsDrvRealizeHalftonePaletteSupported
                          7B IsEngBitBltSupported
                          C0 IsPDEVOBJ_vProfileDriverSupported
                         115 PDEVOBJ_vProfileDriverWrap
                          ED IsbSpEnableSpritesSupported
                          F7 IsvEnableSynchronizeSupported
                          89 IsGetWin8StyleDpiSettingFromRegistrySupported
                          32 GetWin8StyleDpiSettingFromRegistry
                          85 IsGetDpiSettingWithNoDefaultSupported
                          2D GetDpiSettingWithNoDefault
                          37 GetghsemEnableEUDC
                          9F IsGreHideSpritesSupported
                          5C IsCreatePhysicalMonitorSupported
                           2 CreatePhysicalMonitorWrap
                          60 IsDestroyPhysicalMonitorSupported
                           6 DestroyPhysicalMonitor
                          D6 IsUserGetHipDeviceInfoSupported
                         12B UserGetHipDeviceInfo
                          3F GetgptoWrap
                          AC IsGrepSfmRemoveSurfacesSupported
                          57 GrepSfmRemoveSurfaces
                         121 UMPDOBJ_bCleanupWrap
                          CC IsUMPDOBJ_bCleanupSupported
                          81 IsFreeNonCachedUserMemSupported
                          29 FreeNonCachedUserMemWrap
                          C9 IsUMPDCachedResourceCleanupSupported
                         11E UMPDCachedResourceCleanupWrap
                          5B IsCleanupHLSURFSupported
                           1 CleanupHLSURF
                          F0 IsvCleanupFontsSupported
                         145 vCleanupFonts
                          F4 IsvCleanupUMWindowlessSpriteSupported
                         149 vCleanupUMWindowlessSprite
                          F1 IsvCleanupMetaTypeSupported
                         146 vCleanupMetaType
                          F3 IsvCleanupPrivateFontsSupported
                         148 vCleanupPrivateFonts
                          95 IsGetgpniFontsDirectoryAndScratchSupported
                          3E GetgpniFontsDirectoryAndScratch
                         126 UmfdSessionUninitialize
                          99 IsGreDeleteClientObjSupported
                          42 GreDeleteClientObj
                          CF IsUmfdIsCurrentProcessUmfdHostNoLockSupported
                         124 UmfdIsCurrentProcessUmfdHostNoLock
                          D2 IsUmfdUninitializeProcessSupported
                         127 UmfdUninitializeProcess
                          B2 IsMonitorAPIProcessTerminatingSupported
                         107 MonitorAPIProcessTerminating
                          83 IsGdiThreadCalloutFlushUserBatchSupported
                          2B GdiThreadCalloutFlushUserBatch
                          AD IsHT_DestroyDeviceHalftoneInfoSupported
                          58 HT_DestroyDeviceHalftoneInfoWrap
                          D3 IsUmfdUninitializeThreadSupported
                         128 UmfdUninitializeThread
                          FF IsvRestorePathSupported
                         154 vRestorePathWrap
                          9C IsGreGetAspectRatioFilterSupported
                          47 GreGetAspectRatioFilter
                          AA IsGreSetBitmapBitsSupported
                          55 GreSetBitmapBits
                          33 GetgForceFontAssocCodePage
                          35 GetgSystemOemCodePage
                          34 GetgSystemAnsiCodePage
                          AF IsInitFNTCacheSupported
                          59 InitFNTCache
                          F8 IsvGetJpn98FixPitchSupported
                         14D vGetJpn98FixPitch
                         125 UmfdSessionInitialize
                          E8 IsbInitFontTablesSupported

    ext-ms-win-moderncore-win32k-base-ntuser-l1-1-0.dll
             1C0200AE0 Import Address Table
             1C02043F0 Import Name Table
                     0 time date stamp
                     0 Index of first forwarder reference

                         1E8 IsEditionUpdateRemoteLightsSupported
                          C2 EditionUpdateRemoteLights
                          4B EditionClientCharToWchar
                         100 GetWakeSourceInputTypeMask
                          FE GetUndimSourceInputTypeMask
                         1EF IsEditionxxxSystemParametersInfoWorkerSupported
                          C9 EditionxxxSystemParametersInfoWorker
                         1BD IsEditionPersistUserSPISupported
                          97 EditionPersistUserSPI
                         1EE IsEditionxxxBroadcastSPIChangeSupported
                          C8 EditionxxxBroadcastSPIChange
                         3C5 hUserCreateKernelEvent
                         392 UserActivateDwmInputProcessing
                         399 UserProcessDwmInput
                         393 UserDeactivateDwmInputProcessing
                         14A IsCompositionInputThreadSupported
                         2D1 IsUserValidateAndAttachQueueToInputWindowApiExtSupported
                         39C UserValidateAndAttachQueueToInputWindowApiExt
                         2CE IsUserDetachQueueFromInputWindowApiExtSupported
                         394 UserDetachQueueFromInputWindowApiExt
                         13C IsCitGetWindowInfoSupported
                          14 CitGetWindowInfo
                          C3 EditionUpdateSASModifiers
                         396 UserIsCurrentThreadDesktopComposed
                         397 UserIsWindowDesktopComposed
                         39A UserRemoveWindowedSwapChain
                         39B UserSetWindowedSwapChainApiExt
                         212 IsGetDesktopViewSupported
                          ED GetDesktopView
                         165 IsDispBrokerGetCurrentModeImplSupported
                          3E DispBrokerGetCurrentModeImpl
                         16A IsDwmAsyncNotifySessionConnectedSupported
                          43 DwmAsyncNotifySessionConnected
                         294 IsRemoteConnection
                         295 IsRemoveInputDevicesSupported
                         357 RemoveInputDevices
                         312 IsxxxRemoteConsoleShadowStartSupported
                         3DE xxxRemoteConsoleShadowStart
                         259 IsLW_BrushInitSupported
                         324 LW_BrushInit
                         31D IsxxxUserReinitializeAutoRotationSupported
                         3E9 xxxUserReinitializeAutoRotation
                         2D8 IsW32pProcessCalloutSupported
                         3A2 W32pProcessCallout
                         2D9 IsW32pThreadCalloutSupported
                         3A3 W32pThreadCallout
                         2D0 IsUserJobCalloutSupported
                         398 UserJobCallout
                         157 IsDesktopOpenProcedureSupported
                          2E DesktopOpenProcedure
                         26E IsOkayToCloseDesktopSupported
                         335 OkayToCloseDesktop
                         2C7 IsUnmapDesktopSupported
                         38B UnmapDesktop
                         1F8 IsFreeDesktopSupported
                          D3 FreeDesktop
                         26F IsOkayToCloseWindowStationSupported
                         336 OkayToCloseWindowStation
                         164 IsDestroyWindowStationSupported
                          3C DestroyWindowStation
                         208 IsFreeWindowStationSupported
                          E3 FreeWindowStation
                         273 IsParseWindowStationSupported
                         339 ParseWindowStation
                         2EB IsWindowStationOpenProcedureSupported
                         3B6 WindowStationOpenProcedure
                         3A5 WakeRITForShutdown
                         2AF IsSetTimerCoalescingToleranceSupported
                         372 SetTimerCoalescingTolerance
                         315 IsxxxSendMessageBSMSupported
                         3E1 xxxSendMessageBSM
                         283 IsPowerOffGdiSupported
                         348 PowerOffGdi
                         284 IsPowerOnGdiSupported
                         349 PowerOnGdi
                         34C ProcessDelayedSdc
                         344 PostPlaySoundMessage
                         2A9 IsSetForegroundPrioritySupported
                         36B SetForegroundPriority
                         24D IsIsHungWindowSupported
                         230 IsHungWindow
                         2B8 IsStartScreenSaverSupported
                         37B StartScreenSaver
                         3C1 _PostMessage
                         2DA IsWakeRITForConfigSwitchSupported
                         3A4 WakeRITForConfigSwitch
                         287 IsPrepareGammaRampDataSupported
                         34B PrepareGammaRampData
                         1F3 IsFadeDesktopSupported
                          CE FadeDesktop
                         268 IsModerncorePowerOffMonitorSupported
                         331 ModerncorePowerOffMonitor
                         29B IsRestoreGammaRampSupported
                         35D RestoreGammaRamp
                         2AD IsSetPointerSupported
                         36F SetPointer
                         269 IsModerncorePowerOnMonitorSupported
                         332 ModerncorePowerOnMonitor
                         311 IsxxxRefreshDisplayOrientationSupported
                         3DD xxxRefreshDisplayOrientation
                         267 IsModerncorePowerDimMonitorSupported
                         330 ModerncorePowerDimMonitor
                         26A IsModerncorePowerUnDimMonitorSupported
                         333 ModerncorePowerUnDimMonitor
                         285 IsPowerStateTasksAllowedSupported
                         34A PowerStateTasksAllowed
                         236 IsInitKeyboardStateSupported
                         110 InitKeyboardState
                         319 IsxxxSetInformationThreadSupported
                         3E5 xxxSetInformationThread
                         34E PushW32ThreadLock
                         341 PopW32ThreadLock
                         317 IsxxxSetCsrssThreadDesktopSupported
                         3E3 xxxSetCsrssThreadDesktop
                         314 IsxxxRestoreCsrssThreadDesktopSupported
                         3E0 xxxRestoreCsrssThreadDesktop
                         306 IsxxxDwmStopRedirectionSupported
                         31E IsxxxUserResetDisplayDeviceSupported
                         3EA xxxUserResetDisplayDevice
                         2FB IsxxxBroadcastModernAppRedrawSupported
                         3C7 xxxBroadcastModernAppRedraw
                         323 IszzzUpdateCursorImageSupported
                         3EF zzzUpdateCursorImage
                         26B IsModerncoreUserPowerInfoCalloutSupported
                         334 ModerncoreUserPowerInfoCallout
                         13B IsCheckupHidLeakSupported
                          13 CheckupHidLeak
                         146 IsCleanupPlaySoundSupported
                          1E CleanupPlaySound
                         1FD IsFreeImeHotKeysSupported
                          D8 FreeImeHotKeys
                         229 IsGetgpastrSetupExeSupported
                         104 GetgpastrSetupExe
                         227 IsGetglpSetupProgramsSupported
                         102 GetglpSetupPrograms
                         22B IsGetpbwlCacheSupported
                         106 GetpbwlCache
                         207 IsFreeTimerSupported
                          E2 FreeTimer
                         13D IsCleanupDesktopsMonitorsAndWindowsSnapShotSupported
                          15 CleanupDesktopsMonitorsAndWindowsSnapShot
                         144 IsCleanupModuleAllocationsSupported
                          1C CleanupModuleAllocations
                         13F IsCleanupFeedbackDataSupported
                          17 CleanupFeedbackData
                         204 IsFreeSMSSupported
                          DF FreeSMS
                         220 IsGetSMSLookasideSupported
                          FB GetSMSLookaside
                         1FF IsFreeMessageListSupported
                          DA FreeMessageList
                         2C3 IsUninitRotationManagerSupported
                         385 UninitRotationManager
                         153 IsDeleteFadeSpriteSupported
                          2A DeleteFadeSprite
                         145 IsCleanupOEMBitmapsSupported
                          1D CleanupOEMBitmaps
                         293 IsReleaseWallpaperSettingsSupported
                         356 ReleaseWallpaperSettings
                         2B4 IsShutdownNavigationWindowRegistrySupported
                         377 ShutdownNavigationWindowRegistry
                         13E IsCleanupDwmInputProcessingSupported
                          16 CleanupDwmInputProcessing
                         150 IsDDCCICleanUpSupported
                          27 DDCCICleanUpWrap
                         386 UninitializeEditionAutoLogger
                         260 IsMagContextDestroySupported
                         32A MagContextDestroy
                         2D2 IsUserkTraceLoggingSupported
                          3D DisableUserkTraceLogging
                         143 IsCleanupMediaChangeSupported
                          1B CleanupMediaChange
                         2C5 IsUninitializeWin32PoolTrackingSupported
                         388 UninitializeWin32PoolTracking
                         2C4 IsUninitializeWin32CrossSessionGlobalsSupported
                         387 UninitializeWin32CrossSessionGlobals
                         139 IsCheckSessionPoolAllocationsSupported
                          11 CheckSessionPoolAllocations
                         2BC IsTelemetryAssertsSupported
                         389 UninitializeWin32kFullTelemetryAsserts
                         28B IsPushW32ThreadLockSupported
                         27C IsPopW32ThreadLockSupported
                         27B IsPopAndFreeW32ThreadLockSupported
                         27A IsPopAndFreeAlwaysW32ThreadLockSupported
                         147 IsCleanupW32ThreadLocksSupported
                         31B IsxxxUnlockMenuStateSupported
                         22E IsHasHidTableSupported
                         25C IsLockQCursorSupported
                         123 InitializeWin32kFullTelemetryAsserts
                         246 IsInitializeWin32CrossSessionGlobalsSupported
                         121 InitializeWin32CrossSessionGlobals
                         247 IsInitializeWin32PoolTrackingSupported
                         122 InitializeWin32PoolTracking
                         240 IsInitializeHidRequestListSupported
                         11B InitializeHidRequestList
                         244 IsInitializePointerPredictionSupported
                         11F InitializePointerPrediction
                         243 IsInitializePointerDevicesPresenceStateSupported
                         11E InitializePointerDevicesPresenceState
                         261 IsMagContextInitializeSupported
                         32B MagContextInitialize
                          CA EnableUserkTraceLogging
                         23E IsInitTimerCoalescingSupported
                         118 InitTimerCoalescing
                         23F IsInitializeFeedbackDataSupported
                         11A InitializeFeedbackData
                         119 InitializeEditionAutoLogger
                         151 IsDDCCIInitializeSupported
                          28 DDCCIInitializeWrap
                         234 IsInitDwmInputProcessingSupported
                         10E InitDwmInputProcessing
                         242 IsInitializeNavigationWindowRegistrySupported
                         11D InitializeNavigationWindowRegistry
                         2C9 IsUpdateDesktopThresholdsSupported
                         38D UpdateDesktopThresholds
                         272 IsPaintScreenBackgroundSupported
                         338 PaintScreenBackground
                         169 IsDwmAsyncNotifyDisplayModeChangeSupported
                          42 DwmAsyncNotifyDisplayModeChange
                         290 IsRecreateTouchInjectionDevicesSupported
                         353 RecreateTouchInjectionDevices
                         321 IszzzResetSharedDesktopsSupported
                         3ED zzzResetSharedDesktops
                         14B IsCreateBitmapStripSupported
                          22 CreateBitmapStrip
                         135 IsCalcWindowsFullScreenSupported
                           D CalcWindowsFullScreen
                         231 IsIAMKeyAcquiredSupported
                         10B IAMKeyAcquired
                         27D IsPostIAMShellHookMessageExSupported
                         342 PostIAMShellHookMessageEx
                         2FA IsxxxBroadcastDisplaySettingsChangeSupported
                         3C6 xxxBroadcastDisplaySettingsChange
                         303 IsxxxDesktopsRecalcAndBroadcastDisplayChangeSupported
                         3CF xxxDesktopsRecalcAndBroadcastDisplayChange
                         33F PopAndFreeAlwaysW32ThreadLock
                         22C IsHandleDisplayChangeForInactiveDesktopsSupported
                         107 HandleDisplayChangeForInactiveDesktops
                         28D IsQueueNotifyMessageSupported
                         350 QueueNotifyMessage
                           B CacheRotationInfo
                          D0 FreeAllSpbs
                         37C StopFade
                         3D7 xxxInternalInvalidate
                         1F5 IsFreeAllSpbsSupported
                         2B9 IsStopFadeSupported
                         340 PopAndFreeW32ThreadLock
                         12C IsAllocateW32ProcessSupported
                           4 AllocateW32Process
                         320 IszzzCalcStartCursorHideSupported
                         3EC zzzCalcStartCursorHide
                         2AE IsSetRITTimerSupported
                         371 SetRITTimer
                         2AA IsSetManifestWinVerSupported
                         36C SetManifestWinVer
                         2A6 IsSetAppCompatFlagsSupported
                         368 SetAppCompatFlags
                         313 IsxxxResolveDesktopSupported
                         3DF xxxResolveDesktop
                         31A IsxxxSetProcessWindowStationSupported
                         3E6 xxxSetProcessWindowStation
                         264 IsMapDesktopSupported
                         32E MapDesktop
                         322 IszzzSetDesktopSupported
                         3EE zzzSetDesktop
                         216 IsGetJournallingQueueSupported
                          F1 GetJournallingQueue
                         161 IsDestroyThreadsMessagesSupported
                          39 DestroyThreadsMessages
                         31C IsxxxUpdateInputHangInfoSupported
                         3E8 xxxUpdateInputHangInfo
                         14C IsCreateInputContextSupported
                          23 CreateInputContext
                         300 IsxxxClientThreadSetupSupported
                         3CC xxxClientThreadSetup
                         30F IsxxxPlayEventSoundSupported
                         3DB xxxPlayEventSound
                         24E IsIsKeyStateCachedSupported
                         258 IsKeyStateCached
                         326 LockQCursor
                         148 IsClearDelegationCaptureSupported
                          20 ClearDelegationCapture
                         2B1 IsSetWakeBitSupported
                         374 SetWakeBit
                         3EB xxxWindowEvent
                         2C6 IsUnlockCaptureWindowSupported
                         38A UnlockCaptureWindow
                         2AC IsSetNewForegroundQueueSupported
                         36E SetNewForegroundQueue
                         141 IsCleanupIAMAccessSupported
                          19 CleanupIAMAccess
                         24A IsInkProcessorOnThreadExitSupported
                         126 InkProcessorOnThreadExit
                         2FE IsxxxCleanupThreadPointerInputInfoSupported
                         3CA xxxCleanupThreadPointerInputInfo
                         2C8 IsUnreferenceUndispatchedFrameListSupported
                         38C UnreferenceUndispatchedFrameList
                         299 IsResetEdgyDataOwnershipForCurrentThreadSupported
                         35B ResetEdgyDataOwnershipForCurrentThread
                         263 IsMagpRevokeInputTransfromSupported
                         32D MagpRevokeInputTransfrom
                         262 IsMagContextThreadCalloutSupported
                         32C MagContextThreadCallout
                         274 IsPatchThreadWindowsSupported
                         33A PatchThreadWindows
                         2FC IsxxxCancelTrackingForThreadSupported
                         3C8 xxxCancelTrackingForThread
                         1D0 IsEditionRemoveFromMsdListSupported
                         2F2 Is_GetProcessWindowStationSupported
                         3BD _GetProcessWindowStation
                         301 IsxxxCloseClipboardSupported
                         3CD xxxCloseClipboard
                         3E7 xxxUnlockMenuState
                         307 IsxxxEndMenuLoopSupported
                         3D3 xxxEndMenuLoop
                         30E IsxxxMNEndMenuStateSupported
                         3D9 xxxMNEndMenuState
                         30C IsxxxMNCloseHierarchySupported
                         3D8 xxxMNCloseHierarchy
                         25D IsMNFlushDestroyedPopupsSupported
                         327 MNFlushDestroyedPopups
                         25E IsMNUnlinkDelayedFreePopupsSupported
                         328 MNUnlinkDelayedFreePopups
                         30D IsxxxMNEndMenuStateInternalSupported
                         3DA xxxMNEndMenuStateInternal
                         304 IsxxxDestroyThreadDDEObjectSupported
                         3D0 xxxDestroyThreadDDEObject
                         308 IsxxxFlushPaletteSupported
                         3D4 xxxFlushPalette
                         15F IsDestroyThreadHidObjectsSupported
                          37 DestroyThreadHidObjects
                         30A IsxxxHandleHealthyThreadSupported
                         3D6 xxxHandleHealthyThread
                         15A IsDestroyInputHangInfoSupported
                          31 DestroyInputHangInfo
                         162 IsDestroyThreadsTimersSupported
                          3A DestroyThreadsTimers
                         206 IsFreeThreadsWindowHooksSupported
                          E1 FreeThreadsWindowHooks
                         298 IsRemoveThreadSwitchWindowInfoSupported
                         35A RemoveThreadSwitchWindowInfo
                         1FC IsFreeHwndListSupported
                          D7 FreeHwndList
                         160 IsDestroyThreadsHotKeysSupported
                          38 DestroyThreadsHotKeys
                         205 IsFreeThreadsWinEventsSupported
                          E0 FreeThreadsWinEvents
                         2F6 Is_PostMessageSupported
                         15C IsDestroyProcessesClassesSupported
                          34 DestroyProcessesClasses
                         271 IsPackAffectedThreadsFromThreadCleanupSupported
                         337 PackAffectedThreadsFromThreadCleanup
                         2A2 IsSendMsgCleanupSupported
                         364 SendMsgCleanup
                         31F IsxxxWindowEventSupported
                         318 IsxxxSetForegroundThreadSupported
                         3E4 xxxSetForegroundThread
                         2BA IsSuspendThreadQueueSupported
                         37D SuspendThreadQueue
                         209 IsFreezeThawTimersSupported
                          E4 FreezeThawTimers
                         29C IsResumeThreadQueueSupported
                         35E ResumeThreadQueue
                         370 SetProcessTimerDelay
                         252 IsIsNativeSubSystemTypeSupported
                         26D IsNativeSubSystemType
                         137 IsCheckAllowForegroundSupported
                           F CheckAllowForeground
                         23B IsInitProcessSystemDpiSupported
                         115 InitProcessSystemDpi
                         15B IsDestroyProcessHidRequestsSupported
                          32 DestroyProcessHidRequests
                         142 IsCleanupInjectedTouchProcessSupported
                          1A CleanupInjectedTouchProcess
                         25F IsMSGSQMRemoveProcessSupported
                         329 MSGSQMRemoveProcess
                         27F IsPostPlaySoundMessageSupported
                         228 IsGetgpPublicObjectListSupported
                         103 GetgpPublicObjectList
                         2F8 Is_UnregisterUserApiHookSupported
                         3C3 _UnregisterUserApiHook
                         2F7 Is_UnregisterDManipHookSupported
                         3C2 _UnregisterDManipHook
                         203 IsFreeProcessMessageFilterSupported
                          DE FreeProcessMessageFilter
                         2C1 IsTransitionCursorSuppressionStateSupported
                         383 TransitionCursorSuppressionState
                          33 DestroyProcessInfoEditionRundown
                         302 IsxxxDesktopThreadSupported
                         3CE xxxDesktopThread
                         28E IsRawInputThreadSupported
                         351 RawInputThread
                         217 IsGetLayeredOrRedirectedParentSupported
                          F2 GetLayeredOrRedirectedParent
                         21E IsGetRedirectionBitmapSupported
                          F9 GetRedirectionBitmap
                         134 IsCalcVisRgnSupported
                           C CalcVisRgn
                         221 IsGetStyleWindowSupported
                          FC GetStyleWindow
                         154 IsDeleteHrgnClipSupported
                          2B DeleteHrgnClip
                         1F4 IsFlushWEFCOMPOSITEDDCEBoundsSupported
                          CF FlushWEFCOMPOSITEDDCEBounds
                         2B5 IsSpbCheckDceSupported
                         378 SpbCheckDce
                         2CC IsUpdateRedirectedDCESupported
                         390 UpdateRedirectedDCE
                         29E IsRevalidateDCESupported
                         360 RevalidateDCE
                         286 IsPrecisionTouchPadEnabled
                         2F3 Is_GetTopLevelWindowSupported
                         3BE _GetTopLevelWindow
                         305 IsxxxDestroyWindowSupported
                         3D1 xxxDestroyWindow
                         2EF Is_DestroyMenuSupported
                         3BA _DestroyMenu
                         163 IsDestroyUnlockedCursorSupported
                          3B DestroyUnlockedCursor
                         15D IsDestroySMWPSupported
                          35 DestroySMWP
                         1FB IsFreeHookSupported
                          D6 FreeHook
                         2FD IsxxxCleanupAndFreeDdeConvSupported
                         3C9 xxxCleanupAndFreeDdeConv
                         1F7 IsFreeDdeXactSupported
                          D2 FreeDdeXact
                         159 IsDestroyEventHookSupported
                          30 DestroyEventHook
                         1FE IsFreeInputContextSupported
                          D9 FreeInputContext
                         1FA IsFreeHidDataSupported
                          D5 FreeHidData
                         1F9 IsFreeDeviceInfoSupported
                          D4 FreeDeviceInfo
                         202 IsFreePointerDeviceSupported
                          DB FreePointerDevice
                         156 IsDesktopAllocSupported
                          2D DesktopAlloc
                         1F2 IsFVisCountableSupported
                          CD FVisCountable
                         20E IsGetClassPtrSupported
                          E9 GetClassPtr
                         155 IsDereferenceClassSupported
                          2C DereferenceClass
                         291 IsReferenceClassSupported
                         354 ReferenceClass
                          1F CleanupW32ThreadLocks
                         2F1 Is_FreeTouchInputInfoSupported
                         3BC _FreeTouchInputInfo
                         2F0 Is_FreeGestureInfoSupported
                         3BB _FreeGestureInfo
                         2ED IsZombieCursorSupported
                         3B8 ZombieCursor
                         13A IsCheckWinstaAttributeAccessSupported
                          12 CheckWinstaAttributeAccess
                         28F IsRecolorDeskPatternSupported
                         352 RecolorDeskPattern
                         316 IsxxxSendNotifyMessageSupported
                         3E2 xxxSendNotifyMessage
                         30B IsxxxInternalInvalidateSupported
                         2F4 Is_MonitorFromPointSupported
                         3BF _MonitorFromPoint
                         2F5 Is_MonitorFromRectSupported
                         3C0 _MonitorFromRect
                         14F IsDCELogicalSpeedTopLevelHitTestSupported
                          25 DCELogicalSpeedTopLevelHitTest
                         158 IsDestroyDpiMetricsCacheSupported
                          2F DestroyDpiMetricsCache
                         133 IsCacheRotationInfoSupported
                          EC GetDesktopHeapSize
                         213 IsGetDpiSettingSupported
                          EE GetDpiSetting
                         2A8 IsSetDpiSettingSupported
                         36A SetDpiSetting
                         2A7 IsSetDpiScalingSettingSupported
                         369 SetDpiScalingSetting
                         2C2 IsUIPISQMStatusSupported
                         384 UIPISQMStatus
                         2D5 IsValidatetagWNDLayoutSupported
                         39F ValidatetagWNDLayout
                         23D IsInitSMSLookasideSupported
                         117 InitSMSLookaside
                         14D IsCreateSetupNameArraySupported
                          24 CreateSetupNameArray
                         23A IsInitPlaySoundSupported
                         114 InitPlaySound
                         235 IsInitFunctionTablesSupported
                         10F InitFunctionTables
                         237 IsInitMessageTablesSupported
                         111 InitMessageTables
                         2D6 IsVerifySyncOnlyMessagesSupported
                         3A0 VerifySyncOnlyMessages
                         239 IsInitOLEFormatsSupported
                         113 InitOLEFormats
                         2B2 IsSetupClassAtomsSupported
                         375 SetupClassAtoms
                         22A IsGetguiKeyboardCorrectionCalloutTimeoutSupported
                         105 GetguiKeyboardCorrectionCalloutTimeout
                         232 IsInitClipFormatExceptionListSupported
                         10C InitClipFormatExceptionList
                         233 IsInitClipboardILDefSupported
                         10D InitClipboardILDef
                         245 IsInitializeTouchPadSysParamsSupported
                         120 InitializeTouchPadSysParams
                         238 IsInitModuleAllocationsSupported
                         112 InitModuleAllocations
                         23C IsInitRotationManagerSupported
                         116 InitRotationManager
                         12B IsAllocateCvrSupported
                           3 AllocateCvr
                         20B IsGetAppCompatFlags2QuadWordSupported
                          E8 GetAppCompatFlags2QuadWord
                         309 IsxxxFullScreenCleanupSupported
                         3D5 xxxFullScreenCleanup
                         2D7 IsVerifyTcbPrivilegesSupported
                         3A1 VerifyTcbPrivileges
                         241 IsInitializeMediaChangeSupported
                         11C InitializeMediaChange
                         297 IsRemoveProcessFromJobSupported
                         359 RemoveProcessFromJob
                         292 IsReferenceWindowStationSupported
                         355 ReferenceWindowStation
                         266 IsModerncoreAtomTableSupported
                         32F ModerncoreAtomTable
                         136 IsCanForceForegroundSupported
                           E CanForceForeground
                         130 IsAutoRotationUpdateRegistrySupported
                           8 AutoRotationUpdateRegistry
                         131 IsBuildHwndListSupported
                           9 BuildHwndList
                         2CD IsUpdateWindowMonitorSupported
                         391 UpdateWindowMonitor
                         2FF IsxxxClientMonitorEnumProcSupported
                         3CB xxxClientMonitorEnumProc
                          4A EditionClearInputTransforms
                         2DC IsWin32AllocPoolImplSupported
                         3A7 Win32AllocPoolImpl
                         2DD IsWin32AllocPoolWithPriorityImplSupported
                         3A8 Win32AllocPoolWithPriorityImpl
                         2DE IsWin32AllocPoolWithQuotaImplSupported
                         3A9 Win32AllocPoolWithQuotaImpl
                         2E1 IsWin32FreePoolImplSupported
                         3AC Win32FreePoolImpl
                         2DB IsWin32AllocPagedLookasideListImplSupported
                         3A6 Win32AllocPagedLookasideListImpl
                         2DF IsWin32AllocateFromPagedLookasideListImplSupported
                         3AA Win32AllocateFromPagedLookasideListImpl
                         2E2 IsWin32FreeToPagedLookasideListImplSupported
                         3AD Win32FreeToPagedLookasideListImpl
                         2E0 IsWin32FreePagedLookasideListImplSupported
                         3AB Win32FreePagedLookasideListImpl
                         3AF Win32UAFMAllocPoolImpl
                         2E5 IsWin32UAFMAllocPoolWithPriorityImplSupported
                         3B0 Win32UAFMAllocPoolWithPriorityImpl
                         1E9 IsEditionUpdateSASModifiersSupported
                         3B1 Win32UAFMAllocPoolWithQuotaImpl
                         2E9 IsWin32UAFMFreePoolImplSupported
                         3B4 Win32UAFMFreePoolImpl
                         2E3 IsWin32UAFMAllocPagedLookasideListImplSupported
                         3AE Win32UAFMAllocPagedLookasideListImpl
                         2E7 IsWin32UAFMAllocateFromPagedLookasideListImplSupported
                         3B2 Win32UAFMAllocateFromPagedLookasideListImpl
                         2EA IsWin32UAFMFreeToPagedLookasideListImplSupported
                         3B5 Win32UAFMFreeToPagedLookasideListImpl
                         2E8 IsWin32UAFMFreePagedLookasideListImplSupported
                         3B3 Win32UAFMFreePagedLookasideListImpl
                          44 DwmSyncFlushForceRenderAndWaitForBatch
                          26 DCompSessionInitialize
                         2CF IsUserEnableConsoleModeSupported
                         395 UserEnableConsoleMode
                         3D2 xxxDwmStopRedirection
                         28A IsProcessHidRawInputSupported
                         265 IsMessageOnlyWindow
                         225 IsGetWakeSourceInputTypeMaskSupported
                         223 IsGetUndimSourceInputTypeMaskSupported
                         1EB IsEditionValidateKbdNLSTableSupported
                          C5 EditionValidateKbdNLSTable
                         1D3 IsEditionResetIMELayoutSupported
                          AD EditionResetIMELayout
                          FF GetUserHandedness
                         109 HasHidTable
                          E7 GetAppCompatFlags2
                         1C9 IsEditionPostRawMouseInputMessageSupported
                         173 IsEditionComputeInjectorUIPISupported
                          4D EditionComputeInjectorUIPI
                         1F0 IsEnsurePointerDeviceHasMonitorSupported
                          CB EnsurePointerDeviceHasMonitor
                         1B2 IsEditionKeepMachineUpSupported
                          8C EditionKeepMachineUp
                         1F1 IsEnterEditionCritSupported
                          CC EnterEditionCrit
                         25A IsLeaveEditionCritSupported
                         325 LeaveEditionCrit
                         280 IsPostPointerDeviceInRangeMessageSupported
                         345 PostPointerDeviceInRangeMessage
                         12F IsApplyPTPTranslationSupported
                           7 ApplyPTPTranslation
                         166 IsDoPredictionSupported
                          3F DoPrediction
                         254 IsIsPointerInputTypeRedirectedSupported
                         277 IsPointerInputTypeRedirected
                         281 IsPostPointerDeviceOutOfRangeMessageSupported
                         346 PostPointerDeviceOutOfRangeMessage
                         168 IsDwmAsyncNotifyDigitizerActiveContactsWrapSupported
                          41 DwmAsyncNotifyDigitizerActiveContactsWrap
                         2D3 IsValidateDeviceSignatureSupported
                         39D ValidateDeviceSignature
                         29D IsRetrieveCalibrationDataSupported
                         35F RetrieveCalibrationData
                         2CB IsUpdatePointerDeviceSystemMetricsSupported
                         38F UpdatePointerDeviceSystemMetrics
                         200 IsFreePointerDeviceCalDataSupported
                          DC FreePointerDeviceCalData
                         201 IsFreePointerDeviceCalibrationInfoSupported
                          DD FreePointerDeviceCalibrationInfo
                         2B0 IsSetUserPTPEnabledPreferenceSupported
                         373 SetUserPTPEnabledPreference
                         34D ProcessHidRawInput
                         21D IsGetPowerTransitionsStateSupported
                          F8 GetPowerTransitionsState
                         253 IsIsPTPInputEnabledSupported
                         270 IsPTPInputEnabled
                         218 IsGetMaxOpenRetriesSupported
                          F3 GetMaxOpenRetries
                         226 IsGetgfSwitchInProgressSupported
                         101 GetgfSwitchInProgress
                         257 IsIsRemoteConnectionSupported
                         224 IsGetUserHandednessSupported
                         21B IsGetPenArbitrationTypeSupported
                          F6 GetPenArbitrationType
                         282 IsPostPointerEventMessageSupported
                         347 PostPointerEventMessage
                         12E IsApplyMagInputTransformSupported
                           6 ApplyMagInputTransform
                         2C0 IsTransformForInputMagnificationSupported
                         382 TransformForInputMagnification
                         12A IsAdjustLinearitySupported
                           2 AdjustLinearity
                         24F IsIsLegacyTouchPadDeviceSupported
                         25B IsLegacyTouchPadDevice
                         248 IsInkProcessorIsInkDeviceSupported
                         124 InkProcessorIsInkDevice
                         249 IsInkProcessorOnPointerMessagePostedSupported
                         125 InkProcessorOnPointerMessagePosted
                         178 IsEditionDeferWinEventNotifySupported
                          52 EditionDeferWinEventNotify
                         183 IsEditionEndDeferWinEventNotifySupported
                          5D EditionEndDeferWinEventNotify
                         1A7 IsEditionIsCompositeAppOrSelfDisabledSupported
                          81 EditionIsCompositeAppOrSelfDisabled
                         197 IsEditionHandleHungWindowSupported
                          71 EditionHandleHungWindow
                         16F IsEditionCancelCoolSwitchSupported
                          48 EditionCancelCoolSwitch
                         1A2 IsEditionInitializeMoveSizeListSupported
                          7C EditionInitializeMoveSizeList
                         199 IsEditionHandleMoveSizeDataOnDestroyMonitorSupported
                          73 EditionHandleMoveSizeDataOnDestroyMonitor
                          AA EditionRemoveFromMsdList
                         1A8 IsEditionIsCompositionInputWindowSupported
                          82 EditionIsCompositionInputWindow
                         18C IsEditionGetCompositionInputWindowUIOwnerSupported
                          66 EditionGetCompositionInputWindowUIOwner
                         256 IsIsProcessForegroundSupported
                         289 IsProcessForeground
                         1D8 IsEditionSetForegroundCheckNoActivateSupported
                          B2 EditionSetForegroundCheckNoActivate
                         1BF IsEditionPointerActivateSupported
                          99 EditionPointerActivate
                         170 IsEditionChangeForegroundQueueForMouseInputSupported
                          49 EditionChangeForegroundQueueForMouseInput
                         1A6 IsEditionIsAppForegroundSupported
                          80 EditionIsAppForeground
                         1BA IsEditionMouseMoveShellResilienceSupported
                          94 EditionMouseMoveShellResilience
                         19C IsEditionHidAutoRepeatTimeoutSupported
                          76 EditionHidAutoRepeatTimeout
                         1D4 IsEditionRimDeviceReadNotificationSupported
                          AE EditionRimDeviceReadNotification
                         1CF IsEditionRegAddRemovePointerDeviceSystemMetricKeySupported
                          A9 EditionRegAddRemovePointerDeviceSystemMetricKey
                         1B0 IsEditionIsUsermodeRIMAccessAllowedSupported
                          8A EditionIsUsermodeRIMAccessAllowed
                         175 IsEditionCoreMsgKSendSupported
                          4F EditionCoreMsgKSend
                         1C4 IsEditionPostEventMessageSupported
                          9E EditionPostEventMessage
                         1ED IsEditionWakeThreadForInputSupported
                          C7 EditionWakeThreadForInput
                         1C6 IsEditionPostInputMessageSupported
                          A0 EditionPostInputMessage
                         1C7 IsEditionPostMouseMoveToQSupported
                          A1 EditionPostMouseMoveToQ
                         1C8 IsEditionPostMouseWheelToForegroundSupported
                          A2 EditionPostMouseWheelToForeground
                         1CA IsEditionPostRitSoundSupported
                          A4 EditionPostRitSound
                         1C3 IsEditionPostAccessibilitySupported
                          9D EditionPostAccessibility
                         1D7 IsEditionSetAccessibilityTimerSupported
                          B1 EditionSetAccessibilityTimer
                         1B4 IsEditionKillAccessibilityTimerSupported
                          8E EditionKillAccessibilityTimer
                         1C5 IsEditionPostInertiaMessageSupported
                          9F EditionPostInertiaMessage
                         1B5 IsEditionLLMouseButtonHookSupported
                          8F EditionLLMouseButtonHook
                         1B6 IsEditionLLMouseWheelHookSupported
                          90 EditionLLMouseWheelHook
                         188 IsEditionForegroundQAccessibleToMouseProducerSupported
                          62 EditionForegroundQAccessibleToMouseProducer
                         1A9 IsEditionIsGpqForegroundAccessibleSupported
                          83 EditionIsGpqForegroundAccessible
                         16C IsEditionActivateMitInputSupported
                          45 EditionActivateMitInput
                         177 IsEditionDeactivateMitInputSupported
                          51 EditionDeactivateMitInput
                         198 IsEditionHandleMitSignalSupported
                          72 EditionHandleMitSignal
                         17C IsEditionDevicePnpNotificationSupported
                          56 EditionDevicePnpNotification
                         1EC IsEditionWakeInputThreadForPnpSupported
                          C6 EditionWakeInputThreadForPnp
                         214 IsGetInputSensorThreadingModelSupported
                          EF GetInputSensorThreadingModel
                         18E IsEditionGetExecutionEvironmentSupported
                          68 EditionGetExecutionEvironment
                         1A4 IsEditionInputExtensibilityCalloutSupported
                          7E EditionInputExtensibilityCallout
                         1E5 IsEditionUpdateInputTransformFromHitTestSupported
                          BF EditionUpdateInputTransformFromHitTest
                         129 IsAddMagnificationOutputTransformSupported
                           1 AddMagnificationOutputTransform
                         296 IsRemoveMagnificationOutputTransformSupported
                         358 RemoveMagnificationOutputTransform
                         20A IsGatherDeviceInfoSummaryInformationSupported
                          E5 GatherDeviceInfoSummaryInformation
                         12D IsApplyGatheredDeviceInfoSummaryInformationSupported
                           5 ApplyGatheredDeviceInfoSummaryInformation
                         29F IsSanitizeRIMCOMPLETEFRAMESupported
                         361 SanitizeRIMCOMPLETEFRAME
                         29A IsResetLastSeenFrameIdSupported
                         35C ResetLastSeenFrameId
                         21C IsGetPenHoldTimeSupported
                          F7 GetPenHoldTime
                         222 IsGetTouchHoldTimeSupported
                          FD GetTouchHoldTime
                         1C1 IsEditionPointerSpeedHitTestSupported
                          9B EditionPointerSpeedHitTest
                         1DA IsEditionSpeedHitTestSupported
                          B4 EditionSpeedHitTest
                         1C2 IsEditionPointerWindowHitTestSupported
                          9C EditionPointerWindowHitTest
                         1C0 IsEditionPointerParentNotifySupported
                          9A EditionPointerParentNotify
                         149 IsClientCallDitThreadSupported
                          21 ClientCallDitThread
                         1AD IsEditionIsPointerInputRedirectedSupported
                          87 EditionIsPointerInputRedirected
                         18F IsEditionGetInputDelegateSupported
                          69 EditionGetInputDelegate
                         24B IsInputTransformOnInputSupported
                         127 InputTransformOnInput
                         22F IsHasInputTransformSupported
                         10A HasInputTransform
                         215 IsGetInputTransformListSupported
                          F0 GetInputTransformList
                         219 IsGetMiPInputTransformSupported
                          F4 GetMiPInputTransform
                         278 IsPointerPromotionGetCurrentPointerIdSupported
                         33D PointerPromotionGetCurrentPointerId
                         279 IsPointerPromotionOnPointerInputRetrievalSupported
                         33E PointerPromotionOnPointerInputRetrieval
                         1CD IsEditionPromotePointerSupported
                          A7 EditionPromotePointer
                         1CC IsEditionProcessPointerInputAsMouseSupported
                          A6 EditionProcessPointerInputAsMouse
                         2AB IsSetManipulationInputTargetTransformSupported
                         36D SetManipulationInputTargetTransform
                         275 IsPerformTargetingWithinPwndSupported
                         33B PerformTargetingWithinPwnd
                         2D4 IsValidatePointerOffsetSupported
                         39E ValidatePointerOffset
                         17E IsEditionDoPointerDPITransformsSupported
                          58 EditionDoPointerDPITransforms
                         187 IsEditionFindThreadPointerDataSupported
                          61 EditionFindThreadPointerData
                         16D IsEditionAllocAndLinkThreadPointerDataSupported
                          46 EditionAllocAndLinkThreadPointerData
                         16E IsEditionAllocThreadPointerDataSupported
                          47 EditionAllocThreadPointerData
                         1DE IsEditionUnlinkAndFreeThreadPointerDataSupported
                          B8 EditionUnlinkAndFreeThreadPointerData
                         174 IsEditionContactVisualizationSupported
                          4E EditionContactVisualization
                         1E4 IsEditionUpdateCursorSizesSupported
                          BE EditionUpdateCursorSizes
                         1A0 IsEditionInitGlobalCursorSizesSupported
                          7A EditionInitGlobalCursorSizes
                         1DF IsEditionUnloadCursorsAndIconsSupported
                          B9 EditionUnloadCursorsAndIcons
                         1D5 IsEditionSendCursorSuppressionUpdateSupported
                          AF EditionSendCursorSuppressionUpdate
                         1AE IsEditionIsPointerQueuedMessageCoalescableSupported
                          88 EditionIsPointerQueuedMessageCoalescable
                         186 IsEditionFindNodeQueuedMessageSupported
                          60 EditionFindNodeQueuedMessage
                         179 IsEditionDelQEntrySupported
                          53 EditionDelQEntry
                         17A IsEditionDelegateCapturePointersSupported
                          54 EditionDelegateCapturePointers
                         276 IsPointerInfoCopyOutHelperInternalSupported
                         33C PointerInfoCopyOutHelperInternal
                         193 IsEditionGetThreadPointerHookDataSupported
                          6D EditionGetThreadPointerHookData
                         167 IsDoesPointerHaveSingleCursorSupported
                          40 DoesPointerHaveSingleCursor
                         17F IsEditionEdgyEnabledSupported
                          59 EditionEdgyEnabled
                         180 IsEditionEdgyProcessInputSupported
                          5A EditionEdgyProcessInput
                         181 IsEditionEdgyResetCurrentFrameSupported
                          5B EditionEdgyResetCurrentFrame
                         182 IsEditionEdgyResetDataFramesSupported
                          5C EditionEdgyResetDataFrames
                         176 IsEditionCreateEdgePalmRejectionZonesSupported
                          50 EditionCreateEdgePalmRejectionZones
                         17B IsEditionDestroyEdgePalmRejectionZonesSupported
                          55 EditionDestroyEdgePalmRejectionZones
                         1E0 IsEditionUpdateAsyncKeyStateSupported
                          BA EditionUpdateAsyncKeyState
                         185 IsEditionFinalizeKoreanImeCompStrOnMouseClickSupported
                          5F EditionFinalizeKoreanImeCompStrOnMouseClick
                         1D1 IsEditionReportMouseBreakToAccessibilitySupported
                          AB EditionReportMouseBreakToAccessibility
                         1DB IsEditionStopSonarSupported
                          B5 EditionStopSonar
                         1B7 IsEditionLegacyTouchPadMouseAllowTapSupported
                          91 EditionLegacyTouchPadMouseAllowTap
                         1B8 IsEditionMagnificationMousePositionSupported
                          92 EditionMagnificationMousePosition
                         18D IsEditionGetDefaultMouseSensitivitySupported
                          67 EditionGetDefaultMouseSensitivity
                         172 IsEditionCommitMousePosAndMoveSupported
                          4C EditionCommitMousePosAndMove
                         1A3 IsEditionInitiateMouseEventProcessingSupported
                          7D EditionInitiateMouseEventProcessing
                         1E7 IsEditionUpdateRawMouseModeSupported
                          C1 EditionUpdateRawMouseMode
                          A3 EditionPostRawMouseInputMessage
                         1BB IsEditionMouseSpeedHitTestSupported
                          95 EditionMouseSpeedHitTest
                         1E3 IsEditionUpdateCursorOnMouseMoveSupported
                          BD EditionUpdateCursorOnMouseMove
                         1D9 IsEditionShouldSwapMouseButtonSupported
                          B3 EditionShouldSwapMouseButton
                         191 IsEditionGetLogicalPointForMouseCaptureButtonEventSupported
                          6B EditionGetLogicalPointForMouseCaptureButtonEvent
                         1BE IsEditionPhysicalToLogicalDPIPointWithInputDestHintSupported
                          98 EditionPhysicalToLogicalDPIPointWithInputDestHint
                         192 IsEditionGetMouseWheelRoutingModeSupported
                          6C EditionGetMouseWheelRoutingMode
                         138 IsCheckCursorClipAccessSupported
                          10 CheckCursorClipAccess
                         190 IsEditionGetInputDesktopIdSupported
                          6A EditionGetInputDesktopId
                         184 IsEditionExtensibility_WakeMITForInterceptCalloutSupported
                          5E EditionExtensibility_WakeMITForInterceptCallout
                         1A5 IsEditionInternalSetCursorPosSupported
                          7F EditionInternalSetCursorPos
                         1DD IsEditionSystemGenerateMoveSupported
                          B7 EditionSystemGenerateMove
                         1E2 IsEditionUpdateCursorAsyncSupported
                          BC EditionUpdateCursorAsync
                         1DC IsEditionSynthesizeMouseWheelSupported
                          B6 EditionSynthesizeMouseWheel
                         2A0 IsSend3FingerTapHotkeySupported
                         362 Send3FingerTapHotkey
                         2A1 IsSend4FingerTapHotkeySupported
                         363 Send4FingerTapHotkey
                         2A3 IsSendPTPAsMouseSupported
                         365 SendPTPAsMouse
                         21A IsGetPTPShellTargetSupported
                          F5 GetPTPShellTarget
                         28C IsQueryInertiaStatusSupported
                         34F QueryInertiaStatus
                         132 IsCachePTPInertiaInfoSupported
                           A CachePTPInertiaInfo
                         2A5 IsSendPTPEndInertiaSupported
                         367 SendPTPEndInertia
                         2A4 IsSendPTPCancelInertiaSupported
                         366 SendPTPCancelInertia
                         22D IsHandlePTPTelemetrySupported
                         108 HandlePTPTelemetry
                         2BE IsTraceLoggingPTPWarpBackSupported
                         380 TraceLoggingPTPWarpBack
                         2BD IsTraceLoggingPTPAAPKeyPressSupported
                         37F TraceLoggingPTPAAPKeyPress
                         128 IsAccessPTPEnabledStatusSupported
                           0 AccessPTPEnabledStatus
                         2CA IsUpdatePTPConfigFromRegistrySupported
                         38E UpdatePTPConfigFromRegistry
                         2EC IsWritePTPSettingValuesSupported
                         3B7 WritePTPSettingValues
                         210 IsGetDefaultPTPConfigurationSupported
                          EB GetDefaultPTPConfiguration
                         251 IsIsMouseDeviceOnIgnoreListSupported
                         26C IsMouseDeviceOnIgnoreList
                         2BB IsTelemPTPConfigUpdateSupported
                         37E TelemPTPConfigUpdate
                         2BF IsTraceLoggingUserIsActiveSupported
                         381 TraceLoggingUserIsActive
                         189 IsEditionFreeIMEKeyboardLayoutsSupported
                          63 EditionFreeIMEKeyboardLayouts
                         19D IsEditionImmActivateAndUnloadThreadsLayoutSupported
                          77 EditionImmActivateAndUnloadThreadsLayout
                         1A1 IsEditionInitSystemCharsetInfoForLayoutSupported
                          7B EditionInitSystemCharsetInfoForLayout
                         1BC IsEditionNotifyShellLanguageHookSupported
                          96 EditionNotifyShellLanguageHook
                         1D2 IsEditionResetIMEConversionStatusSupported
                          AC EditionResetIMEConversionStatus
                         19F IsEditionImmActivateThreadsLayoutSupported
                          79 EditionImmActivateThreadsLayout
                         19E IsEditionImmActivateLayoutSupported
                          78 EditionImmActivateLayout
                         1D6 IsEditionSendIMENotificationSupported
                          B0 EditionSendIMENotification
                         1AF IsEditionIsSASSupported
                          89 EditionIsSAS
                         18B IsEditionGetAppImeCompatFlagsSupported
                          65 EditionGetAppImeCompatFlags
                         18A IsEditionGetActiveHKLSupported
                          64 EditionGetActiveHKL
                         1E6 IsEditionUpdateModifiersForHotkeySupported
                          C0 EditionUpdateModifiersForHotkey
                         19B IsEditionHandleSonarKeyEventSupported
                          75 EditionHandleSonarKeyEvent
                         1AB IsEditionIsGpqForegroundInaccessibleSupported
                          84 EditionIsGpqForegroundInaccessible
                         1CE IsEditionRawInputRequestedForKeyboardSupported
                          A8 EditionRawInputRequestedForKeyboard
                         1EA IsEditionUserBeepSupported
                          C4 EditionUserBeep
                         1B9 IsEditionMessageBeepSupported
                          93 EditionMessageBeep
                         1AA IsEditionIsGpqForegroundInaccessibleExplicitSupported
                          85 EditionIsGpqForegroundInaccessibleExplicit
                         19A IsEditionHandleRawInputSupported
                          74 EditionHandleRawInput
                         17D IsEditionDoHotKeysSupported
                          57 EditionDoHotKeys
                         1B3 IsEditionKeyEventLLHookSupported
                          8D EditionKeyEventLLHook
                         196 IsEditionHandleAndPostKeyEventSupported
                          70 EditionHandleAndPostKeyEvent
                         194 IsEditionHandleAltTabCancelSupported
                          6F EditionHandleAltTabCancel
                         195 IsEditionHandleAltTabSupported
                          6E EditionHandleAltTab
                         1CB IsEditionPostUpdateKeyStateEventSupported
                          A5 EditionPostUpdateKeyStateEvent
                         1E1 IsEditionUpdateAsyncKeyStateThreadsSupported
                          BB EditionUpdateAsyncKeyStateThreads
                         1AC IsEditionIsHotKeySupported
                          86 EditionIsHotKey
                         2E6 IsWin32UAFMAllocPoolWithQuotaImplSupported

    ext-ms-win-moderncore-win32k-base-sysentry-l1-1-0.dll
             1C0202928 Import Address Table
             1C0206238 Import Name Table
                     0 time date stamp
                     0 Index of first forwarder reference

                           6 SysEntryGetW32pServiceLimitFilter
                           5 SysEntryGetW32pServiceLimit
                           7 SysEntryGetW32pServiceTable
[...]
       2033  7EE 001E4388 gDomainHandleManagerLock
       2034  7EF 001E4300 gDomainHookLock
       2035  7F0 001E4348 gDomainPostLock
       2036  7F1 001E42A0 gDomainPowerTransitionsStateLock
       2037  7F2 001E4318 gDomainQueueLock
       2038  7F3 001E4330 gDomainSmsLock
       2039  7F4 001E4360 gDomainThreadInfoLock
       2040  7F5 001E4288 gDomainTlLock
       2041  7F6 001E42E8 gDomainWinEventLock
       2042  7F7 001E42B8 gDomainWindowLock
       2043  7F8 001E2630 gDriverObjectTimes
       2044  7F9 001E28F8 gFilterKeys
       2045  7FA 001E6E34 gGdiInPageErrors
       2046  7FB 001E6F00 gHardErrorHandler
       2047  7FC 001E7740 gHidCounters
       2048  7FD 001E28A8 gHighContrast
       2049  7FE 001E5D40 gHighContrastDefaultScheme
       2050  7FF 001E7830 gHighContrastRegistryKey
       2051  800 001E6B88 gHmLock
       2052  801 001E6B68 gInputLock
       2053  802 001E76C0 gInputSinkInfoRetrieval
       2054  803 001E6F10 gKbdImeStatus
       2055  804 001DE828 gKeyboardInfo
       2056  805 001E779F gLastVkDown
       2057  806 001E779B gLatchBits
       2058  807 001E779A gLockBits
       2059  808 001E7798 gMKPreviousVk
       2060  809 001D9260 gMagnContext
       2061  80A 001E5BC0 gMenuState
       2062  80B 001E28D0 gMouseKeys
       2063  80C 001DE0D8 gNestedWindowLimit
       2064  80D 001DE824 gNumLockVk
       2065  80E 001E1214 gOemScrollVk
       2066  80F 001E1210 gPTPEnabled
       2067  810 001E40C0 gPendingMonitorOnReason
       2068  811 001E46B0 gPendingNotifiesList
       2069  812 001E41B0 gPendingSleepInputReason
       2070  813 001E779E gPhysModifierState
       2071  814 001E6170 gPlatformRole
       2072  815 001E40C8 gPowerAdaptiveState
       2073  816 001E40D0 gPowerDisplayState
       2074  817 001E4070 gPowerState
       2075  818 001E4158 gPowerTransitionsState
       2076  819 001E779C gPrevModifierState
       2077  81A 001E1DEC gProtocolType
       2078  81B 001E6B58 gQueueLock
       2079  81C 001E1DD8 gRemoteClientKeyboardType
       2080  81D 001E1DF8 gRemoteDisplayDeviceName
       2081  81E 001E1E4C gRemoteNumMonitors
       2082  81F 001E1DF0 gRemotePreviousMonitorsCount
       2083  820 001E1E48 gRemotePrimaryMonitor
       2084  821 001E1E50 gRemoteSessionUseWddm
       2085  822 001E1E58 gRemoteTerminalLuid
       2086  823 001E4380 gRotationProcessLock
       2087  824 001E5B30 gSMWP
       2088  825 001E1E6C gServiceSessionId
       2089  826 001E1F58 gSessionCreationTime
       2090  827 001DE0D0 gSessionId
       2091  828 001E19D0 gSharedInfo
       2092  829 001E5E40 gSoundSentry
       2093  82A 001E1CD8 gSqmIsOptedIn
       2094  82B 001E1CD0 gSqmSession
       2095  82C 001E28F0 gStickyKeys
       2096  82D 001E2721 gStickyKeysLeftShiftCount
       2097  82E 001E2720 gStickyKeysRightShiftCount
       2098  82F 001E7799 gTKScanCode
       2099  830 001E6AE0 gTLCInfoLock
       2100  831 001E7480 gTPTelemState
       2101  832 001E1C40 gTPTelemTimings
       2102  833 001E7590 gTPThresholds
       2103  834 001E5AD0 gTermIO
       2104  835 001E6EB8 gThinwireFileObject
       2105  836 001E46C0 gTimerHashTable
       2106  837 001E4AC0 gTimerId
       2107  838 001E28B8 gToggleKeys
       2108  839 001E1C98 gTouchPadParameters
       2109  83A 001E1F4C gUserPostMessageLimit
       2110  83B 001E1F50 gUserProcessHandleQuota
       2111  83C 001E6EC0 gVideoFileObject
       2112  83D 001E1E70 gWinStationInfo
       2113  83E 001E4420 gWinstaRunRef
       2114  83F 001E6B78 gWndLock
       2115  840 001D9270 gWndsMonitorSnapshotHead
       2116  841 001A98B0 gZero
       2117  842 001E7020 g_hbmDesktopPattern
       2118  843 001E2938 g_pWallpaperSettings
       2119  844 001E1350 gaefArctan
       2120  845 001E1320 gaefAxisAngle
       2121  846 001E1338 gaefAxisCoord
       2122  847 001E1170 gaefSin
       2123  848 001E25E0 gafAsyncKeyState
       2124  849 001E25C0 gafAsyncKeyStateRecentDown
       2125  84A 001E2580 gafRawKeyState
       2126  84B 001E1C20 gafServiceFilterAuditCache
       2127  84C 001E6E90 gafServiceFilterAuditStackCache
       2128  84D 001A2C90 gahti
       2129  84E 001E1F80 gaptMouse
       2130  84F 001DDF08 gapulCvt_VK
       2131  850 001DDEE0 gapulCvt_VK_84
       2132  851 001ABE70 gargbInitial
       2133  852 001DE850 gasyscur
       2134  853 001E1F1C gatomFirstPinned
       2135  854 001E6EE0 gatomLastPinned
       2136  855 001E6FC8 gbBlockSendInputResets
       2137  856 001E1E98 gbCleanedUpResources
       2138  857 001E1DC8 gbClientDoubleClickSupport
       2139  858 001E1DE4 gbConnectCompleted
       2140  859 001E1DE8 gbConnected
       2141  85A 001E18F0 gbDBCSCodePage
       2142  85B 001E6E88 gbDITInHitTest
       2143  85C 001E1F54 gbDisableAlpha
       2144  85D 001E18D4 gbDisableTrappedAcRendering
       2145  85E 001E4378 gbEnforceUIPI
       2146  85F 001E7754 gbExitInProgress
       2147  860 001E6ED8 gbFirstConnectionDone
       2148  861 001E1E60 gbFirstInteractiveSession
       2149  862 001E121C gbFullScreen
       2150  863 001E1200 gbGDIOn
       2151  864 001E7DC4 gbGUISetup
       2152  865 001E354C gbGreSessionCleanup
       2153  866 001E1ED4 gbInDestroyHandleTableObjects
       2154  867 001E7764 gbInVideoPnpCallout
       2155  868 001E18F4 gbLockEtw
       2156  869 001E3478 gbLockScreenActive
       2157  86A 001E6E70 gbMDEVDisabled
       2158  86B 001E2722 gbMKMouseMode
       2159  86C 001E1EE9 gbManualDimTimeOut
       2160  86D 001E7778 gbMouseInjectionBlockedOnDIT
       2161  86E 001E6E98 gbNoMoreDITHitTest
       2162  86F 001E1EA0 gbNoMorePowerCallouts
       2163  870 001E1C10 gbOSTestSigningEnabled
       2164  871 001E40C4 gbPendingMonitorOn
       2165  872 001E41B4 gbPendingSleepInput
       2166  873 001E1EA4 gbPowerCalloutsReady
       2167  874 001E1E9C gbPowerHighPrecisionBrightnessSupported
       2168  875 001E1E64 gbRemoteFxSession
       2169  876 001E1E68 gbRemoteSession
       2170  877 001E7470 gbRootPartition
       2171  878 001E4430 gbSnapShotWindowsAndMonitors
       2172  879 001E1C28 gbTraceLoggingInitialized
       2173  87A 001E1EE8 gbTtmEnabled
       2174  87B 001E7760 gbUsingDefaultSectionSize
       2175  87C 001E19B0 gbValidateHandleForIL
       2176  87D 001E1EA8 gbVideoInitialized
       2177  87E 001E19A0 gcDITHitTestWaiters
       2178  87F 001E1CB0 gcDITLuidHitTestWaiters
       2179  880 001E7730 gcDITMouseInjectionWaiters
       2180  881 001E348C gcLocalNextGlobalDeviceNumber
       2181  882 001E1D80 gcSwitchInProgressWaiters
       2182  883 001E6F50 gcSysExpunge
       2183  884 001E18C4 gcTrueTypeFonts
       2184  885 001E6F70 gcachedCaptions
       2185  886 001E1F60 gcmsLastTimer
       2186  887 001E774C gdwAtomicCheckLogSize
       2187  888 001E7750 gdwAtomicCheckSerial
       2188  889 001E1F48 gdwDeferWinEvent
       2189  88A 001E1EC4 gdwDesktopSectionSize
       2190  88B 001E7D40 gdwExtraInstrumentations
       2191  88C 001E6F40 gdwGTERMFlags
       2192  88D 001E1CEC gdwGuiThreads
       2193  88E 001DE820 gdwHungAppTimeout
       2194  88F 001E1D18 gdwHydraHint
       2195  890 001E1218 gdwIMEOpenStatus
       2196  891 001E1CE8 gdwInAtomicOperation
       2197  892 001E2760 gdwKeyboardAttributes
       2198  893 001E1C30 gdwMDAQThreshold
       2199  894 001E1C2C gdwMDAQTimeoutDefenseInDepth
       2200  895 001E1EC0 gdwNOIOSectionSize
       2201  896 001DE0E0 gdwPUDFlags
       2202  897 001E1150 gdwPolicyFlags
       2203  898 001E43A0 gdwServiceFilterAuditCaptureWER
       2204  899 001E43A4 gdwServiceFilterAuditThrottleMode
       2205  89A 001E6F54 gdwThreadEndSession
       2206  89B 001E4194 gdwUpdateKeyboard
       2207  89C 001E4414 gdwWaitToKillServiceTimeout
       2208  89D 001E6FCC gfEnableHexNumpad
       2209  89E 001DE0D4 gfEnableWindowsKey
       2210  89F 001E2780 gfInNumpadHexInput
       2211  8A0 001E41B8 gfIsFadingInProgress
       2212  8A1 001E7780 gfKanaToggle
       2213  8A2 001E4060 gfMonitorPowerInProgress
       2214  8A3 001DE0F8 gfRecordPnpNotification
       2215  8A4 001E6EC8 gfRemotingConsole
       2216  8A5 001E1DD0 gfSessionSwitchBlock
       2217  8A6 001E3468 gfSwitchInProgress
       2218  8A7 001E5D08 gfade
       2219  8A8 001E18D0 gfsCurSignature
       2220  8A9 001E777C gfsSASModifiersDown
       2221  8AA 001E4418 gfsSave
       2222  8AB 001E1CF0 ghCanActivateForegroundPIDs
       2223  8AC 001E1D20 ghKbdTblBase
       2224  8AD 001E1E30 ghRemoteBeepChannel
       2225  8AE 001E1E28 ghRemoteKeyboardChannel
       2226  8AF 001E1E38 ghRemoteMouseChannel
       2227  8B0 001E1E20 ghRemoteThinwireChannel
       2228  8B1 001E1E40 ghRemoteVideoChannel
       2229  8B2 001E1F10 ghSMSS
       2230  8B3 001E4438 ghSectionKernelHandleTable
       2231  8B4 001E4440 ghSectionShared
       2232  8B5 001E5E78 ghWinstaDirectory
       2233  8B6 001E4498 ghbrBlack
       2234  8B7 001E5CE8 ghbrHungApp
       2235  8B8 001E44A0 ghbrWhite
       2236  8B9 001E26C0 ghdcMem
       2237  8BA 001E26B8 ghdcMem2
       2238  8BB 001E2C98 ghfmMemory
       2239  8BC 001E26B0 ghrgnGDC
       2240  8BD 001E26D8 ghrgnInv0
       2241  8BE 001E26D0 ghrgnInv1
       2242  8BF 001E26C8 ghrgnInv2
       2243  8C0 001E26E0 ghrgnInvalid
       2244  8C1 001E2708 ghrgnInvalidSum
       2245  8C2 001E26A8 ghrgnSCR
       2246  8C3 001E26A0 ghrgnSPB1
       2247  8C4 001E2698 ghrgnSPB2
       2248  8C5 001E2690 ghrgnSW
       2249  8C6 001E26F8 ghrgnSWP1
       2250  8C7 001E2688 ghrgnScrl1
       2251  8C8 001E2680 ghrgnScrl2
       2252  8C9 001E2668 ghrgnScrlDst
       2253  8CA 001E2670 ghrgnScrlSrc
       2254  8CB 001E2660 ghrgnScrlValid
       2255  8CC 001E2678 ghrgnScrlVis
       2256  8CD 001E26F0 ghrgnValid
       2257  8CE 001E26E8 ghrgnValidSum
       2258  8CF 001E2700 ghrgnVisNew
       2259  8D0 001E18E0 ghsemAtmfdInit
       2260  8D1 001E18D8 ghsemCLISERV
       2261  8D2 001E1928 ghsemDCVisRgn
       2262  8D3 001E1958 ghsemDriverMgmt
       2263  8D4 001E1908 ghsemDwmState
       2264  8D5 001E1968 ghsemDynamicModeChange
       2265  8D6 001E18E8 ghsemFntCache
       2266  8D7 001E1930 ghsemGreLock
       2267  8D8 001E1920 ghsemHT
       2268  8D9 001E2E48 ghsemHmgr
       2269  8DA 001E1940 ghsemMapRot
       2270  8DB 001E1948 ghsemPalette
       2271  8DC 001E1960 ghsemPublicPFT
       2272  8DD 001E1900 ghsemRFONTList
       2273  8DE 001E1950 ghsemSprite
       2274  8DF 001E1918 ghsemVisRgnPublish
       2275  8E0 001E1910 ghsemVisRgnUniqueness
       2276  8E1 001E18F8 ghsemWndobj
       2277  8E2 001E6EDC giDelayedPowerTimeout
       2278  8E3 001E1EEC giDimTimeOutMs
       2279  8E4 001E1EF4 giPowerOffTimeOutMs
       2280  8E5 001E1EF0 giPowerSessionActivityTimeOutMs
       2281  8E6 001E77C0 giScreenSaveTimeOutMs
       2282  8E7 001E1ECC giheCount
       2283  8E8 001E1EC8 giheCountPeak
       2284  8E9 001E1ED0 giheLast
       2285  8EA 001E5B20 giosbKbdControl
       2286  8EB 001E18CE gjCurCharset
       2287  8EC 001E2620 gklp
       2288  8ED 001E7784 gklpBootTime
       2289  8EE 001E6F1C gktp
       2290  8EF 001E778C glMitInGuard
       2291  8F0 001E193C glRenderEndDelete
       2292  8F1 001E43B0 gliQpcFreq
       2293  8F2 001E7478 gmsLastTelemetrySentTime
       2294  8F3 001E6F30 gnDCECount
       2295  8F4 001E1DCC gnPoSessionSwitchBlockCount
       2296  8F5 001E7788 gnRetryReadInput
       2297  8F6 001E6EB0 gpAtomickCheckStacks
       2298  8F7 001E6EA8 gpClipFormatExceptionList
       2299  8F8 001E7758 gpConsoleShadowDisplayChangeEvent
       2300  8F9 001E3EE8 gpCursorClip
       2301  8FA 001E2710 gpDispInfo
       2302  8FB 001E77B0 gpDpiKernelModeMetricsCache
       2303  8FC 001E77A8 gpDpiKernelModeMetricsMRUNode
       2304  8FD 001E2928 gpEventDiconnectDesktop
       2305  8FE 001E1D28 gpEventPnPWainting
       2306  8FF 001E33D8 gpForegroundInfo
       2307  900 001E2E40 gpGdiSharedMemory
       2308  901 001E1F20 gpHandleFlagsMutex
       2309  902 001E33E8 gpHidInput
       2310  903 001E72A8 gpHidInterfaceGuid
       2311  904 001E33E0 gpIOCPDispatcher
       2312  905 001E33D0 gpInputExtensibilityCallout
       2313  906 001E3EF0 gpInputGlobals
       2314  907 001E6F58 gpJobsList
       2315  908 001E2768 gpKL
       2316  909 001E2770 gpKbdNlsTbl
       2317  90A 001E2778 gpKbdTbl
       2318  90B 001E1C08 gpKernelHandleTable
       2319  90C 001E33F0 gpKeyboardSensor
       2320  90D 001E2CB0 gpLockShortDelay
       2321  90E 001E2930 gpMonitorCached
       2322  90F 001E7240 gpMonitorMouse
       2323  910 001E33F8 gpMouseSensor
       2324  911 001E6ED0 gpRemoteBeepDevice
       2325  912 001E2920 gpRemoteSessionOcclusionEvent
       2326  913 001E6F48 gpScancodeMap
       2327  914 001E1D30 gpThinWireCache
       2328  915 001E33C8 gpTouchProcessor
       2329  916 001E2978 gpW32FastMutex
       2330  917 001E2640 gpWin32kDriverObject
       2331  918 001E7770 gpWinEventHooks
       2332  919 001E5CF0 gpai
       2333  91A 001E1ED8 gpbIgnoreSleepInput
       2334  91B 001E1EE0 gpbInHiberBoot
       2335  91C 001E6FC0 gpbwlList
       2336  91D 001E2748 gpdeskRecalcQueueAttach
       2337  91E 001E1C18 gpducstulHead
       2338  91F 001E1148 gpdwCPUserPreferencesMask
       2339  920 001E19C0 gpepCSRSS
       2340  921 001E1EF8 gpepInit
       2341  922 001E1DC0 gpevtDesktopDestroyed
       2342  923 001E1D90 gpevtMonitorPowerWaiter
       2343  924 001E1DB8 gpevtPTPOperation
       2344  925 001E1DA8 gpevtQueueReadyForCallout
       2345  926 001E1D98 gpevtRitReadyForCallOut
       2346  927 001E1DB0 gpevtVideoInitialized
       2347  928 001E1DA0 gpevtVideoportCallout
       2348  929 001E1F08 gpidLogon
       2349  92A 001E1F00 gpidLogonUI
       2350  92B 001E1F28 gpkdiStatic
       2351  92C 001E5B60 gpopupMenu
       2352  92D 001E6EE8 gppiDManipHook
       2353  92E 001E6F60 gppiForegroundOld
       2354  92F 001E2728 gppiFullscreen
       2355  930 001E2758 gppiInputProvider
       2356  931 001E2738 gppiList
       2357  932 001E2750 gppiLockSFW
       2358  933 001E7408 gppiScreenSaver
       2359  934 001E2740 gppiStarting
       2360  935 001E6EF0 gppiUserApiHook
       2361  936 001E2910 gpqCursor
       2362  937 001E6FE0 gpqForeground
       2363  938 001E2918 gpqForegroundPrev
       2364  939 001E2648 gpresDitCompositionInputSinkQuery
       2365  93A 001E2650 gpresDitMouseInjectionFlush
       2366  93B 001E2658 gpresDitTouchInjection
       2367  93C 001E2628 gpresPTPEventQueue
       2368  93D 001E1980 gpresRender
       2369  93E 001E19A8 gpresUser
       2370  93F 001E1998 gpsemDITHitTestWaiters
       2371  940 001E1CB8 gpsemDITLuidHitTestWaiters
       2372  941 001E7738 gpsemDITMouseInjectionWaiters
       2373  942 001E1D88 gpsemSwitchInProgressWaiters
       2374  943 001E19B8 gpsi
       2375  944 001E5CF8 gptCursorAsync
       2376  945 001DE0DC gptInd
       2377  946 001E77A0 gptSSCursor
       2378  947 001E6FF0 gptiBlockInput
       2379  948 001E1988 gptiCurrent
       2380  949 001E6FF8 gptiForeground
       2381  94A 001E7000 gptiLockUpdate
       2382  94B 001E2718 gptiManipulationThread
       2383  94C 001E7790 gptiModerncoreTimerThread
       2384  94D 001E6E80 gptiRit
       2385  94E 001E7008 gptiShutdownNotify
       2386  94F 001E6EA0 gptiShutdownWaiter
       2387  950 001E1990 gptiTSRequest
       2388  951 001E7010 gptiTasklist
       2389  952 001E1F68 gptmrMaster
       2390  953 001E2A60 gptmrWD
       2391  954 001E1F40 gpusMouseVKey
       2392  955 001E1EB0 gpvSharedAlloc
       2393  956 001E1EB8 gpvSharedBase
       2394  957 001E1CE0 gpvWin32kImageBase
       2395  958 001DE590 gpviCPUserPreferences
       2396  959 001E6F28 gpvwplHungRedraw
       2397  95A 001E7A38 gpwpiFirstWow
       2398  95B 001E6FE8 gpwtiFirst
       2399  95C 001E6EF8 grpWinStaList
       2400  95D 001E6F38 grpdeskIODefault
       2401  95E 001E7400 grpdeskRitInput
       2402  95F 001E77B8 grpwinstaLogoff
       2403  960 001E5B10 gsmsList
       2404  961 001E5D00 gspklBaseLayout
       2405  962 001E6E10 gspklGlobalActive
       2406  963 001E7018 gspwndInternalCapture
       2407  964 001E43A8 gstServiceFilterAuditStackCacheSize
       2408  965 001E1D40 gstrBaseWinStationName
       2409  966 001E5AA0 gtmrAdjustmentListHead
       2410  967 001E5AB0 gtmrListHead
       2411  968 001E6FD0 gtmridAccessTimeOut
       2412  969 001E1D1C guKbdTblSize
       2413  96A 001E7768 guiActivateShellWindow
       2414  96B 001E7A60 gulDelayedSwitchAction
       2415  96C 001E18C8 gulFontInformation
       2416  96D 001E4428 gullUserCritAcquireToken
       2417  96E 001E18CC gusLanguageID
       2418  96F 001E77D8 gwMKButtonState
       2419  970 001E1220 gwMKCurrentButton
       2420  971 0007C0A0 hCreateKernelEvent
       2421  972 000FDCA0 hCreateKernelTimer
       2422  973 00091F40 hCreateSolidBrushInternal
       2423  974 001E1F38 hModuleWin
       2424  975 001E1F30 hModuleWinKernel
       2425  976 00025610 hbmSelectBitmap
       2426  977 0001A1E0 hdcOpenDCW
       2427  978 0008A310 hdevEnumerate
       2428  979 00053C90 lNormAngle
       2429  97A 000846B0 ldevLoadDriver
       2430  97B 00084980 ldevLoadImage
       2431  97C 0007FD60 ldevLoadInternal
       2432  97D 00084570 ldevUnloadImage
       2433  97E 001B8E30 luidSystem
       2434  97F 001E11F4 nCharsets
       2435  980 00050C40 newpathalloc
       2436  981 00117020 pProcessDfbSurfaces
       2437  982 0008E030 pProcessDfbSurfaces2
       2438  983 0008E120 pProcessDfbSurfacesInternal
       2439  984 001DE6F0 psTcb
       2440  985 00092CC0 rgbFromColorref
       2441  986 001D9000 s_rgSensorMap
       2442  987 001B8DF8 szCOMPOSITIONINPUTQUEUE_NAME
       2443  988 001A95B4 szNull
       2444  989 001E44B0 szWindowStationDirectory
       2445  98A 0011F150 ulCharsetToCodePage
       2446  98B 000B7D90 ulColorRefToRGB
       2447  98C 0005B9E0 ulGetNearestIndexFromColorref
       2448  98D 0004C6E0 ulIndexToRGB
       2449  98E 000B4870 vAdvanceAETEdges
       2450  98F 0001FDA0 vConvertXformToMatrix
       2451  990 0008A970 vDynamicConvertNewSurfaceDCs
        417  991 000B7B90 vFreeDriverInfo2
       2452  992 0006E730 vMarkFreeW32Process
       2453  993 0006CF70 vMarkFreeW32Thread
       2454  994 00111380 vMatchAPal
       2455  995 000B5680 vMoveNewEdges
       2456  996 001133D0 vRestoreRegion
       2457  997 000B4F30 vXSortAETEdges
       2458  998 000A9AA0 xxxActivateKeyboardLayout
       2459  999 000B3310 xxxChangeForegroundKeyboardTable
       2460  99A 0004AED0 xxxCreateSystemThreads
        460  99B 000FFB20 xxxDisplayDiagBlackScreenDetected
       2461  99C 00099450 xxxDwmCheckProcessSession
       2462  99D 0007DEB0 xxxDwmControl
       2463  99E 000ACE30 xxxEnumDisplayMonitors
       2464  99F 000A9900 xxxInternalActivateKeyboardLayout
       2465  9A0 000A94D0 xxxInternalToUnicode
       2466  9A1 000AC050 xxxKENLSProcs
       2467  9A2 000AA4D0 xxxKeyEvent
       2468  9A3 00097340 xxxODI_ColorInit
       2469  9A4 000AA130 xxxProcessKeyEvent
       2470  9A5 00050CD0 xxxRemoteConnect
       2471  9A6 00082BA0 xxxResetDisplayDevice
       2472  9A7 000AFE40 xxxSafeLoadKeyboardLayoutEx
       2473  9A8 000B8D40 xxxSendWinlogonPowerMessage
       2474  9A9 000638B0 xxxSetProcessInitState
       2475  9AA 0006CBC0 xxxSystemParametersInfo
       2476  9AB 000A93C0 xxxToUnicodeEx
       2477  9AC 001648A0 xxxUnloadKeyboardLayout
       2478  9AD 000965F0 xxxUpdatePerUserAccessPackSettings
       2479  9AE 000A0220 xxxUserChangeDisplaySettings
       2480  9AF 0007E840 xxxUserPowerCalloutWorker
       2481  9B0 0001B7A0 xxxUserProcessCallout
       2482  9B1 00080260 xxxUserSetDisplayConfig
       2483  9B2 00016CD0 zzzDestroyQueue

  Summary

        F000 .data
       18000 .edata
       15000 .idata
        1000 .kbdfall
       18000 .pdata
       3D000 .rdata
       10000 .reloc
       23000 .rsrc
      19B000 .text
        5000 GFIDS
        4000 INIT
        1000 NONPAGE
        2000 PAGE
