Microsoft (R) COFF/PE Dumper Version 14.29.30137.0
Copyright (C) Microsoft Corporation.  All rights reserved.


Dump of file C:\Windows\SystemApps\Microsoft.Windows.Cortana_cw5n1h2txyewy\microsoft.bing.client.graph.dll

File Type: DLL

  Image has the following dependencies:

    msvcp_win.dll
    api-ms-win-crt-string-l1-1-0.dll
    api-ms-win-crt-runtime-l1-1-0.dll
    api-ms-win-crt-private-l1-1-0.dll
    api-ms-win-core-synch-l1-1-0.dll
    api-ms-win-core-com-l1-1-0.dll
    api-ms-win-core-localization-l1-2-2.dll
    api-ms-win-core-winrt-string-l1-1-0.dll
    api-ms-win-core-errorhandling-l1-1-0.dll
    api-ms-win-core-handle-l1-1-0.dll
    api-ms-win-core-winrt-l1-1-0.dll
    api-ms-win-core-interlocked-l1-1-0.dll
    api-ms-win-core-libraryloader-l1-2-0.dll
    api-ms-win-core-profile-l1-1-0.dll
    api-ms-win-core-processthreads-l1-1-0.dll
    api-ms-win-core-sysinfo-l1-1-0.dll
    api-ms-win-core-rtlsupport-l1-1-0.dll
    api-ms-win-core-debug-l1-1-0.dll
    api-ms-win-core-processthreads-l1-1-1.dll
    api-ms-win-core-timezone-l1-1-0.dll
    api-ms-win-core-string-l1-1-0.dll
    api-ms-win-eventing-provider-l1-1-0.dll
    api-ms-win-core-localization-l1-2-0.dll

  Section contains the following exports for Microsoft.Bing.Client.Graph.dll

    00000000 characteristics
    A40D26E8 time date stamp
        0.00 version
           1 ordinal base
           2 number of functions
           2 number of names

    ordinal hint RVA      name

          1    0 00079DA0 DllCanUnloadNow
          2    1 00079D60 DllGetActivationFactory

  Section contains the following imports:

    msvcp_win.dll
             18014FF10 Import Address Table
             1801D9518 Import Name Table
                     0 time date stamp
                     0 Index of first forwarder reference

                         28E ?_Xlength_error@std@@YAXPEBD@Z
                         28C ?_Xbad_function_call@std@@YAXXZ

    api-ms-win-crt-string-l1-1-0.dll
             18014FE98 Import Address Table
             1801D94A0 Import Name Table
                     0 time date stamp
                     0 Index of first forwarder reference

                          23 _iswxdigit_l
                          1C _iswdigit_l
                          AB wcsspn
                          A6 wcsncmp
                          16 _iswalpha_l
                          21 _iswspace_l
                          A2 wcscspn
                          9E wcscmp
                          83 memset
                          15 _iswalnum_l

    api-ms-win-crt-runtime-l1-1-0.dll
             18014FE80 Import Address Table
             1801D9488 Import Name Table
                     0 time date stamp
                     0 Index of first forwarder reference

                          37 _initterm_e
                          36 _initterm

    api-ms-win-crt-private-l1-1-0.dll
             18014FD10 Import Address Table
             1801D9318 Import Name Table
                     0 time date stamp
                     0 Index of first forwarder reference

                          90 _o__callnewh
                          92 _o__cexit
                          9F _o__configure_narrow_argv
                          A5 _o__create_locale
                          A6 _o__crt_atexit
                          C1 _o__execute_onexit_table
                          F1 _o__free_locale
                         13B _o__initialize_narrow_environment
                         13C _o__initialize_onexit_table
                         13F _o__invalid_parameter_noinfo_noreturn
                         142 _o__isctype_l
                         242 _o__purecall
                         250 _o__register_onexit_function
                         258 _o__seh_filter_dll
                         462 memmove
                         2A4 _o__tolower_l
                         2CD _o__wcsicmp_l
                         2D7 _o__wcsnicmp_l
                         2DE _o__wcstod_l
                         2E1 _o__wcstoi64_l
                         2E2 _o__wcstol_l
                         38B _o_free
                         3A1 _o_isdigit
                         3A9 _o_iswalnum
                         3D6 _o_malloc
                         434 _o_terminate
                         442 _o_wcscat_s
                         445 _o_wcscpy_s
                         447 _o_wcsncat_s
                         448 _o_wcsncpy_s
                           C __C_specific_handler
                           1 _CxxThrowException
                          72 _o___stdio_common_vswscanf
                          71 _o___stdio_common_vswprintf_s
                          6F _o___stdio_common_vswprintf
                          60 _o___std_type_info_name
                          5F _o___std_type_info_destroy_list
                          5E _o___std_exception_destroy
                          5D _o___std_exception_copy
                          5B _o___pctype_func
                         469 wcschr
                         46B wcsstr
                          29 __std_terminate
                          12 __CxxFrameHandler3
                         461 memcpy

    api-ms-win-core-synch-l1-1-0.dll
             18014FC28 Import Address Table
             1801D9230 Import Name Table
                     0 time date stamp
                     0 Index of first forwarder reference

                          37 WaitForSingleObjectEx
                          11 EnterCriticalSection
                          1D LeaveCriticalSection
                          1A InitializeCriticalSectionEx
                           F DeleteCriticalSection
                           6 CreateEventW
                          27 ResetEvent
                          29 SetEvent
                          19 InitializeCriticalSectionAndSpinCount
                           5 CreateEventExW

    api-ms-win-core-com-l1-1-0.dll
             18014FAC0 Import Address Table
             1801D90C8 Import Name Table
                     0 time date stamp
                     0 Index of first forwarder reference

                          40 CoTaskMemAlloc
                          21 CoGetObjectContext
                           8 CoCreateGuid
                           9 CoCreateInstance
                          15 CoGetApartmentType
                           7 CoCreateFreeThreadedMarshaler
                          41 CoTaskMemFree
                          52 StringFromGUID2

    api-ms-win-core-localization-l1-2-2.dll
             18014FB90 Import Address Table
             1801D9198 Import Name Table
                     0 time date stamp
                     0 Index of first forwarder reference

                          32 LCIDToLocaleName

    api-ms-win-core-winrt-string-l1-1-0.dll
             18014FCC8 Import Address Table
             1801D92D0 Import Name Table
                     0 time date stamp
                     0 Index of first forwarder reference

                          10 WindowsGetStringRawBuffer
                          14 WindowsPreallocateStringBuffer
                          15 WindowsPromoteStringBuffer
                           E WindowsDuplicateString
                           F WindowsGetStringLen
                           C WindowsDeleteString
                           D WindowsDeleteStringBuffer
                           A WindowsCreateString

    api-ms-win-core-errorhandling-l1-1-0.dll
             18014FB20 Import Address Table
             1801D9128 Import Name Table
                     0 time date stamp
                     0 Index of first forwarder reference

                           5 GetLastError
                           F SetUnhandledExceptionFilter
                          11 UnhandledExceptionFilter

    api-ms-win-core-handle-l1-1-0.dll
             18014FB40 Import Address Table
             1801D9148 Import Name Table
                     0 time date stamp
                     0 Index of first forwarder reference

                           0 CloseHandle

    api-ms-win-core-winrt-l1-1-0.dll
             18014FCB0 Import Address Table
             1801D92B8 Import Name Table
                     0 time date stamp
                     0 Index of first forwarder reference

                           1 RoGetActivationFactory
                           0 RoActivateInstance

    api-ms-win-core-interlocked-l1-1-0.dll
             18014FB50 Import Address Table
             1801D9158 Import Name Table
                     0 time date stamp
                     0 Index of first forwarder reference

                           0 InitializeSListHead

    api-ms-win-core-libraryloader-l1-2-0.dll
             18014FB60 Import Address Table
             1801D9168 Import Name Table
                     0 time date stamp
                     0 Index of first forwarder reference

                           1 DisableThreadLibraryCalls
                          15 GetProcAddress
                          14 GetModuleHandleW

    api-ms-win-core-profile-l1-1-0.dll
             18014FBD8 Import Address Table
             1801D91E0 Import Name Table
                     0 time date stamp
                     0 Index of first forwarder reference

                           0 QueryPerformanceCounter
                           1 QueryPerformanceFrequency

    api-ms-win-core-processthreads-l1-1-0.dll
             18014FBA0 Import Address Table
             1801D91A8 Import Name Table
                     0 time date stamp
                     0 Index of first forwarder reference

                           D GetCurrentProcessId
                          4D TerminateProcess
                          11 GetCurrentThreadId
                           C GetCurrentProcess

    api-ms-win-core-sysinfo-l1-1-0.dll
             18014FC80 Import Address Table
             1801D9288 Import Name Table
                     0 time date stamp
                     0 Index of first forwarder reference

                           5 GetLocalTime
                          15 GetSystemTimeAsFileTime

    api-ms-win-core-rtlsupport-l1-1-0.dll
             18014FBF0 Import Address Table
             1801D91F8 Import Name Table
                     0 time date stamp
                     0 Index of first forwarder reference

                         5F2 RtlVirtualUnwind
                         4CA RtlLookupFunctionEntry
                         2EA RtlCaptureContext

    api-ms-win-core-debug-l1-1-0.dll
             18014FB08 Import Address Table
             1801D9110 Import Name Table
                     0 time date stamp
                     0 Index of first forwarder reference

                           5 IsDebuggerPresent
                           7 OutputDebugStringW

    api-ms-win-core-processthreads-l1-1-1.dll
             18014FBC8 Import Address Table
             1801D91D0 Import Name Table
                     0 time date stamp
                     0 Index of first forwarder reference

                          2F IsProcessorFeaturePresent

    api-ms-win-core-timezone-l1-1-0.dll
             18014FC98 Import Address Table
             1801D92A0 Import Name Table
                     0 time date stamp
                     0 Index of first forwarder reference

                           D TzSpecificLocalTimeToSystemTime
                           B SystemTimeToTzSpecificLocalTime

    api-ms-win-core-string-l1-1-0.dll
             18014FC10 Import Address Table
             1801D9218 Import Name Table
                     0 time date stamp
                     0 Index of first forwarder reference

                           6 MultiByteToWideChar
                           7 WideCharToMultiByte

    api-ms-win-eventing-provider-l1-1-0.dll
             18014FEF0 Import Address Table
             1801D94F8 Import Name Table
                     0 time date stamp
                     0 Index of first forwarder reference

                           3 EventRegister
                           9 EventWriteTransfer
                           5 EventUnregister

    api-ms-win-core-localization-l1-2-0.dll
             18014FB80 Import Address Table
             1801D9188 Import Name Table
                     0 time date stamp
                     0 Index of first forwarder reference

                          36 LocaleNameToLCID

  Summary

        1000 .MODINIT
        1000 .RDFINIT
        8000 .data
       14000 .pdata
       9F000 .rdata
        6000 .reloc
        1000 .rsrc
      13B000 .text
