Microsoft (R) COFF/PE Dumper Version 14.29.30137.0
Copyright (C) Microsoft Corporation.  All rights reserved.


Dump of file C:\Windows\WinSxS\amd64_microsoft-windows-refs_31bf3856ad364e35_10.0.17763.1_none_973c6a82750fea7c\refs.sys

File Type: EXECUTABLE IMAGE

  Image has the following dependencies:

    ntoskrnl.exe
    HAL.dll

  Section contains the following imports:

    ntoskrnl.exe
             1C0143010 Import Address Table
             1C0143DA8 Import Name Table
                     0 time date stamp
                     0 Index of first forwarder reference

                         5FF PcwCreateInstance
                         5FE PcwCloseInstance
                         ABB __C_specific_handler
                          3A CcSetFileSizesEx
                          88 ExAcquirePushLockExclusiveEx
                          9C ExAllocatePoolWithTag
                         7FF RtlInitializeBitMap
                          C3 ExFreePoolWithTag
                         10E ExReleasePushLockEx
                          8B ExAcquireResourceSharedLite
                         114 ExReleaseResourceLite
                         7AF RtlFindNextForwardRunClear
                         41B KeInitializeEvent
                         4C5 KeWaitForSingleObject
                         3DF KeClearEvent
                         1F4 FsRtlOplockIsFastIoPossible
                          E6 ExIsResourceAcquiredExclusiveLite
                          83 ExAcquireFastMutex
                         108 ExReleaseFastMutex
                          16 CcFlushCache
                          1C CcGetFileObjectFromSectionPtrsRef
                         5F8 ObfDereferenceObject
                          2E CcPurgeCacheSection
                         3BE KeAcquireGuardedMutex
                         473 KeReleaseGuardedMutex
                         175 FsRtlCheckOplockEx
                          8A ExAcquireResourceExclusiveLite
                          2C CcPrepareMdlWrite
                         528 MmMapLockedPagesSpecifyCache
                          29 CcMdlWriteComplete
                         1DC FsRtlNormalizeNtstatus
                         174 FsRtlCheckOplock
                         173 FsRtlCheckLockForWriteAccess
                         1C0 FsRtlIsNtstatusExpected
                          20 CcInitializeCacheMap
                          42 CcUninitializeCacheMap
                         29D IoCreateStreamFileObjectLite
                          3E CcSetParallelFlushFile
                         479 KeReleaseMutant
                         5D4 ObDereferenceObjectDeferDelete
                          25 CcMapData
                          2B CcPinRead
                          2D CcPreparePinWrite
                          27 CcMdlReadComplete
                         3D9 KeBugCheckEx
                         2F4 IoGetTopLevelIrp
                         4FA MmCanFileBeTruncated
                           B CcCoherencyFlushAndPurgeCache
                         3E9 KeDelayExecutionThread
                         3F7 KeExpandKernelStackAndCalloutEx
                         3AA IofCompleteRequest
                         36D IoSetTopLevelIrp
                         3F2 KeEnterCriticalRegion
                         311 IoPropagateActivityIdToThread
                         287 IoClearActivityIdThread
                         43D KeLeaveCriticalRegion
                         504 MmFlushImageSection
                         1E0 FsRtlNotifyFilterChangeDirectory
                         1DE FsRtlNotifyCleanup
                         188 FsRtlFastUnlockAll
                         2EC IoGetRequestorProcess
                         2C4 IoGetActivityIdThread
                         2C3 IoGetActivityIdIrp
                         19E FsRtlHeatLogIo
                         505 MmForceSectionClosed
                         339 IoRemoveShareAccess
                         1EA FsRtlNotifyVolumeEvent
                         320 IoRaiseInformationalHardError
                         2CE IoGetCurrentProcess
                         45E KeQueryPriorityThread
                          F6 ExRaiseStatus
                         73B RtlCaptureStackBackTrace
                          F1 ExQueueWorkItem
                         16F FsRtlCancellableWaitForSingleObject
                         27C IoCancelIrp
                         49C KeSetEvent
                         305 IoIsOperationSynchronous
                         169 FsRtlAreNamesEqual
                         2E6 IoGetIrpExtraCreateParameter
                         18B FsRtlFindExtraCreateParameter
                         156 FsRtlAcknowledgeEcp
                         1BF FsRtlIsNonEmptyDirectoryReparsePointAllowed
                         183 FsRtlDissectName
                          5A DbgPrintEx
                         153 ExpInterlockedPopEntrySList
                         154 ExpInterlockedPushEntrySList
                          EC ExQueryDepthSList
                         16C FsRtlAreVolumeStartupApplicationsComplete
                          48 CcWaitForCurrentLazyWriterActivity
                         5DA ObGetObjectSecurity
                         5F1 ObReleaseObjectSecurity
                         1EF FsRtlOplockBreakH
                         503 MmDoesFileHaveUserWritableReferences
                         284 IoCheckShareAccess
                         38A IoUpdateShareAccess
                         369 IoSetShareAccessEx
                         285 IoCheckShareAccessEx
                         1F2 FsRtlOplockFsctrl
                         17A FsRtlCurrentBatchOplock
                         17C FsRtlCurrentOplockH
                         35C IoSetInformation
                         27B IoCancelFileOpen
                         22B FsRtlValidateReparsePointBuffer
                         858 RtlNtStatusToDosErrorNoTeb
                         AD5 _strnicmp
                         698 PsGetProcessImageFileName
                         278 IoBuildPartialMdl
                         552 MmUnmapLockedPages
                         26B IoAllocateMdl
                         53B MmProbeAndLockPages
                         2BF IoFreeMdl
                         529 MmMapLockedPagesWithReservedMapping
                         553 MmUnmapReservedMapping
                         54F MmUnlockPages
                          44 CcUnpinData
                         1C3 FsRtlIsTotalDeviceFailure
                         123 ExSetResourceOwnerPointerEx
                         2E4 IoGetIoPriorityHint
                         4F9 MmBuildMdlForNonPagedPool
                         535 MmMdlPageContentsState
                         370 IoSizeofWorkItem
                         2FC IoInitializeWorkItem
                           E CcCopyWrite
                         30B IoMakeAssociatedIrp
                         365 IoSetMasterIrpStatus
                         2BE IoFreeIrp
                         37F IoUninitializeWorkItem
                         401 KeFlushIoBuffers
                          C6 ExGetExclusiveWaiterCount
                         276 IoBuildAsynchronousFsdRequest
                         357 IoSetFsTrackOffsetState
                         31D IoQueueWorkItemEx
                         360 IoSetIoPriorityHint
                         3A9 IofCallDriver
                         113 ExReleaseResourceForThreadLite
                         300 IoIs32bitProcess
                         5E8 ObReferenceObjectByHandle
                         2B9 IoFileObjectType
                         269 IoAllocateIrp
                         185 FsRtlDoesNameContainWildCards
                         1BD FsRtlIsNameInExpression
                         910 SeCaptureSubjectContext
                         1E2 FsRtlNotifyFilterReportChange
                         7FC RtlInitUnicodeString
                         65A ProbeForWrite
                         5E7 ObQueryObjectAuditingByHandle
                         923 SeDeleteObjectAuditAlarm
                         90D SeAuditingHardLinkEventsWithContext
                         903 SeAuditHardLinkCreation
                           C CcCopyRead
                          90 ExAcquireSharedStarveExclusive
                          A5 ExConvertExclusiveToSharedLite
                         1EB FsRtlNotifyVolumeEventEx
                         34A IoRetrievePriorityInfo
                         362 IoSetIoPriorityHintIntoThread
                         26F IoApplyPriorityInfoThread
                         1F5 FsRtlOplockIsSharedRequest
                         171 FsRtlCheckLockForOplockRequest
                         1F6 FsRtlOplockKeysEqual
                         1F3 FsRtlOplockFsctrlEx
                         262 IoAcquireVpbSpinLock
                         337 IoReleaseVpbSpinLock
                         181 FsRtlDismountComplete
                         277 IoBuildDeviceIoControlRequest
                         659 ProbeForRead
                         187 FsRtlFastCheckLockForWrite
                         6CD PsIsThreadTerminating
                         5FA ObfReferenceObject
                         34D IoSetActivityIdThread
                         3C9 KeAcquireSpinLockRaiseToDpc
                         47D KeReleaseSpinLock
                         47C KeReleaseSemaphore
                         1A5 FsRtlIncrementCcFastReadWait
                         1A2 FsRtlIncrementCcFastReadNoWait
                         1A4 FsRtlIncrementCcFastReadResourceMiss
                         1A3 FsRtlIncrementCcFastReadNotPossible
                           A CcCanIWrite
                          10 CcCopyWriteWontFlush
                          26 CcMdlRead
                          D4 ExInitializeResourceLite
                          AE ExDeleteResourceLite
                         1FD FsRtlPrivateLock
                         18A FsRtlFastUnlockSingle
                         189 FsRtlFastUnlockAllByKey
                         16B FsRtlAreThereWaitingFileLocks
                         1FE FsRtlProcessFileLock
                         3AD KdDebuggerEnabled
                          7B EtwWriteTransfer
                         19D FsRtlHeatInit
                         16D FsRtlBalanceReads
                          E7 ExIsResourceAcquiredSharedLite
                         331 IoRegisterPlugPlayNotification
                         49A KeSetCoalescableTimer
                         760 RtlCopyUnicodeString
                         5E6 ObQueryNameString
                         293 IoCreateDevice
                         354 IoSetDeviceToVerify
                         19A FsRtlGetSectorSizeInformation
                         7F5 RtlInitAnsiString
                         72A RtlAnsiStringToUnicodeString
                         29C IoCreateStreamFileObjectEx2
                          35 CcSetAdditionalCacheAttributesEx
                         502 MmDisableModifiedWriteOfSection
                         48D KeResetEvent
                         423 KeInitializeSpinLock
                         19F FsRtlHeatLogTierMove
                         539 MmPrefetchPages
                         8BA RtlTestBit
                         89D RtlSetBits
                         89B RtlSetBit
                         2D7 IoGetDevicePropertyData
                          1F CcGetNumberOfMappedPages
                         457 KeQueryLogicalProcessorRelationship
                          43 CcUnmapFileOffsetFromSystemCache
                           8 CcAddDirtyPagesToExternalCache
                          11 CcDeductDirtyPagesFromExternalCache
                          2F CcRegisterExternalCache
                          47 CcUnregisterExternalCache
                         1C6 FsRtlLegalAnsiCharacterArray
                         8CC RtlUnicodeStringToCountedOemString
                         7C1 RtlFreeOemString
                          28 CcMdlWriteAbort
                         289 IoClearFsTrackOffsetState
                         186 FsRtlFastCheckLockForRead
                         72D RtlAppendUnicodeStringToString
                         390 IoVolumeDeviceToDosName
                         3A3 IoWithinStackLimits
                         260 IoAcquireCancelSpinLock
                         334 IoReleaseCancelSpinLock
                         788 RtlDuplicateUnicodeString
                          76 EtwWrite
                         7AD RtlFindMessage
                         513 MmGetSystemRoutineAddress
                         39D IoWMIRegistrationControl
                         7EC RtlGetVersion
                         44C KeQueryActiveProcessorCountEx
                         7CD RtlGetCompressionWorkSpaceSize
                         202 FsRtlQueryMaximumVirtualDiskNestingLevel
                         41C KeInitializeGuardedMutex
                         3D2 KeAllocateCalloutStackEx
                         1D5 FsRtlMdlReadCompleteDev
                         1D9 FsRtlMdlWriteCompleteDev
                         203 FsRtlRegisterFileSystemFilterCallbacks
                          70 EtwRegister
                         41E KeInitializeMutant
                         25E InitializeSListHead
                         425 KeInitializeTimer
                         417 KeInitializeDpc
                         422 KeInitializeSemaphore
                         32C IoRegisterFileSystem
                         404 KeFreeCalloutStack
                         51E MmIsThisAnNtAsSystem
                          D1 ExInitializeNPagedLookasideList
                          D2 ExInitializePagedLookasideList
                         A31 ZwOpenKey
                         9E3 ZwClose
                         A6F ZwQueryValueKey
                         A2A ZwNotifyChangeKey
                         7C3 RtlFreeUnicodeString
                         840 RtlLengthRequiredSid
                         805 RtlInitializeSid
                         8B5 RtlSubAuthoritySid
                         763 RtlCreateAcl
                         719 RtlAddAccessAllowedAce
                         76A RtlCreateSecurityDescriptor
                         8A1 RtlSetDaclSecurityDescriptor
                         900 SeAssignSecurity
                         2DD IoGetFileObjectGenericMapping
                         841 RtlLengthSecurityDescriptor
                         94B SeReleaseSubjectContext
                         71A RtlAddAccessAllowedAceEx
                         40A KeGetCurrentProcessorNumberEx
                         3D5 KeAreAllApcsDisabled
                         776 RtlDelete
                         74C RtlCompareMemory
                         8B1 RtlSplay
                         172 FsRtlCheckLockForReadAccess
                           9 CcAsyncCopyRead
                          3F CcSetReadAheadGranularity
                         93A SePrivilegeCheck
                          12 CcDeferWrite
                          CA ExGetPreviousMode
                         8F8 SeAccessCheckEx
                         8FB SeAccessCheckWithHint
                         953 SeSetSecurityDescriptorInfo
                         921 SeDeassignSecurity
                         943 SeQuerySecurityDescriptorInfo
                         932 SeLockSubjectContext
                         961 SeUnlockSubjectContext
                         8FC SeAdjustAccessStateForAccessConstraints
                         907 SeAuditingAnyFileEventsWithContextEx
                         8FF SeAppendPrivileges
                         929 SeFreePrivileges
                         955 SeShouldCheckForAccessRightsFromParent
                         90A SeAuditingFileEventsWithContextEx
                         938 SeOpenObjectForDeleteAuditAlarm
                         935 SeOpenObjectAuditAlarm
                         965 SeValidSecurityDescriptor
                         8F7 SeAccessCheck
                         901 SeAssignSecurityEx
                         916 SeComputeAutoInheritByObjectType
                         7D1 RtlGetDaclSecurityDescriptor
                         869 RtlOwnerAcesPresent
                         7E4 RtlGetSaclSecurityDescriptor
                         7A1 RtlFindAceByType
                          75 EtwUnregister
                         279 IoBuildSynchronousFsdRequest
                         391 IoVolumeDeviceToGuid
                         22C FsRtlVolumeDeviceToCorrelationId
                         803 RtlInitializeGenericTableAvl
                         1E7 FsRtlNotifyInitializeSync
                         50E MmGetMaximumFileSectionSize
                         4F0 MmAllocateMappingAddress
                         1A0 FsRtlHeatUninit
                         1E9 FsRtlNotifyUninitializeSync
                         509 MmFreeMappingAddress
                         2AA IoDeleteDevice
                          FF ExReinitializeResourceLite
                         809 RtlInsertElementGenericTableAvl
                         84B RtlLookupElementGenericTableFullAvl
                         80B RtlInsertElementGenericTableFullAvl
                         77A RtlDeleteElementGenericTableAvl
                         21E FsRtlTeardownPerFileContexts
                         792 RtlEnumerateGenericTableWithoutSplayingAvl
                         1AF FsRtlInitializeOplock
                         228 FsRtlUninitializeOplock
                         4F8 MmBadPointer
                         190 FsRtlFreeFileLock
                         21F FsRtlTeardownPerStreamContexts
                         163 FsRtlAllocateFileLock
                         3C5 KeAcquireQueuedSpinLock
                         47B KeReleaseQueuedSpinLock
                         AE4 _vsnwprintf
                          73 EtwSetInformation
                         427 KeInitializeTimerEx
                         3DA KeCancelTimer
                         402 KeFlushQueuedDpcs
                         461 KeQueryTimeIncrement
                          89 ExAcquirePushLockSharedEx
                         6B4 PsGetThreadProcess
                         697 PsGetProcessId
                         467 KeReadStateEvent
                         A2E ZwOpenEvent
                         4A4 KeSetPriorityThread
                          38 CcSetDirtyPinnedData
                         385 IoUnregisterPlugPlayNotification
                         38D IoVerifyVolume
                         35B IoSetHardErrorOrVerifyDevice
                         19C FsRtlGetVirtualDiskNestingLevel
                         74F RtlCompareUnicodeString
                         13A ExTryQueueWorkItem
                         667 PsCreateSystemThread
                         1A1 FsRtlIncrementCcFastMdlReadWait
                         600 PcwRegister
                         AC9 _purecall
                          7F ExAcquireAutoExpandPushLockShared
                         101 ExReleaseAutoExpandPushLockShared
                          B2 ExDisownFastResource
                          CF ExInitializeFastResource
                         105 ExReleaseDisownedFastResource
                          87 ExAcquireFastResourceSharedStarveExclusive
                          E3 ExIsFastResourceHeldExclusive
                          FE ExReinitializeFastResource
                          85 ExAcquireFastResourceExclusive
                         10B ExReleaseFastResource
                          E2 ExIsFastResourceHeld
                          AA ExDeleteFastResource
                          A6 ExConvertFastResourceExclusiveToShared
                          CE ExInitializeFastOwnerEntry
                          86 ExAcquireFastResourceShared
                         747 RtlClearBits
                         37C IoTransferActivityId
                         3C0 KeAcquireInStackQueuedSpinLock
                         475 KeReleaseInStackQueuedSpinLock
                         144 ExUuidCreate
                          BF ExFreeAutoExpandPushLock
                          96 ExAllocateAutoExpandPushLock
                          7E ExAcquireAutoExpandPushLockExclusive
                         100 ExReleaseAutoExpandPushLockExclusive
                         B0C qsort
                         546 MmSetAddressRangeModified
                         7B3 RtlFindSetBits
                         733 RtlAreBitsSet
                         499 KeSetBasePriorityThread
                         4C3 KeWaitForMultipleObjects
                         884 RtlRandomEx
                         731 RtlAreBitsClear
                         743 RtlClearAllBits
                         860 RtlNumberOfSetBitsInRange
                         745 RtlClearBit
                         899 RtlSetAllBits
                         134 ExTryAcquirePushLockExclusiveEx
                         130 ExTryAcquireAutoExpandPushLockExclusive
                         131 ExTryAcquireAutoExpandPushLockShared
                         135 ExTryAcquirePushLockSharedEx
                         75B RtlCopyMemoryNonTemporal
                         85B RtlNumberOfClearBits
                         756 RtlCopyBitMap
                         2FA IoInitializeRemoveLockEx
                         77C RtlDeleteHashTable
                         261 IoAcquireRemoveLockEx
                         335 IoReleaseRemoveLockAndWaitEx
                         7F8 RtlInitEnumerationHashTable
                         78D RtlEnumerateEntryHashTable
                         88A RtlRemoveEntryHashTable
                         78A RtlEndEnumerationHashTable
                         767 RtlCreateHashTableEx
                         85E RtlNumberOfSetBits
                         7FB RtlInitStrongEnumerationHashTable
                         8B3 RtlStronglyEnumerateEntryHashTable
                         78B RtlEndStrongEnumerationHashTable
                         84C RtlLookupEntryHashTable
                         80C RtlInsertEntryHashTable
                         336 IoReleaseRemoveLockEx
                          C2 ExFreePool
                          AC ExDeleteNPagedLookasideList
                         152 ExpInterlockedFlushSList
                          AD ExDeletePagedLookasideList
                         751 RtlCompressBuffer
                         771 RtlDecompressBufferEx
                         463 KeQueryUnbiasedInterruptTime
                         AC5 _local_unwind

    HAL.dll
             1C0143000 Import Address Table
             1C0143D98 Import Name Table
                     0 time date stamp
                     0 Index of first forwarder reference

                          53 KeQueryPerformanceCounter

  Summary

        B000 .data
        5000 .idata
        E000 .pdata
       29000 .rdata
        9000 .reloc
       12000 .rsrc
      100000 .text
        1000 GFIDS
        4000 INIT
       87000 PAGE
        1000 msrodata
