Microsoft (R) COFF/PE Dumper Version 14.29.30137.0
Copyright (C) Microsoft Corporation.  All rights reserved.


Dump of file C:\Windows\WinSxS\amd64_microsoft-windows-getuname_31bf3856ad364e35_10.0.17763.1_none_1e2312aaf1b8c15e\getuname.dll

File Type: DLL

  Image has the following dependencies:

    msvcrt.dll
    api-ms-win-core-libraryloader-l1-2-0.dll
    api-ms-win-core-synch-l1-2-0.dll
    api-ms-win-core-profile-l1-1-0.dll
    api-ms-win-core-processthreads-l1-1-0.dll
    api-ms-win-core-sysinfo-l1-1-0.dll
    api-ms-win-core-rtlsupport-l1-1-0.dll
    api-ms-win-core-errorhandling-l1-1-0.dll

  Section contains the following exports for GetUName.dll

    00000000 characteristics
    31431EAE time date stamp
        0.00 version
           1 ordinal base
           1 number of functions
           1 number of names

    ordinal hint RVA      name

          1    0 00001170 GetUName

  Section contains the following imports:

    msvcrt.dll
             1800021C0 Import Address Table
             180002798 Import Name Table
                     0 time date stamp
                     0 Index of first forwarder reference

                          57 __C_specific_handler
                          55 _XcptFilter
                         486 malloc
                         44C free
                         17D _initterm
                          AE _amsg_exit

    api-ms-win-core-libraryloader-l1-2-0.dll
             180002130 Import Address Table
             180002708 Import Name Table
                     0 time date stamp
                     0 Index of first forwarder reference

                          1C LoadStringW

    api-ms-win-core-synch-l1-2-0.dll
             180002198 Import Address Table
             180002770 Import Name Table
                     0 time date stamp
                     0 Index of first forwarder reference

                          2D Sleep

    api-ms-win-core-profile-l1-1-0.dll
             180002168 Import Address Table
             180002740 Import Name Table
                     0 time date stamp
                     0 Index of first forwarder reference

                           0 QueryPerformanceCounter

    api-ms-win-core-processthreads-l1-1-0.dll
             180002140 Import Address Table
             180002718 Import Name Table
                     0 time date stamp
                     0 Index of first forwarder reference

                          4D TerminateProcess
                           C GetCurrentProcess
                          11 GetCurrentThreadId
                           D GetCurrentProcessId

    api-ms-win-core-sysinfo-l1-1-0.dll
             1800021A8 Import Address Table
             180002780 Import Name Table
                     0 time date stamp
                     0 Index of first forwarder reference

                          19 GetTickCount
                          15 GetSystemTimeAsFileTime

    api-ms-win-core-rtlsupport-l1-1-0.dll
             180002178 Import Address Table
             180002750 Import Name Table
                     0 time date stamp
                     0 Index of first forwarder reference

                           2 RtlCaptureContext
                           F RtlVirtualUnwind
                           9 RtlLookupFunctionEntry

    api-ms-win-core-errorhandling-l1-1-0.dll
             180002118 Import Address Table
             1800026F0 Import Name Table
                     0 time date stamp
                     0 Index of first forwarder reference

                          11 UnhandledExceptionFilter
                           F SetUnhandledExceptionFilter

  Summary

        1000 .data
        1000 .pdata
        1000 .rdata
        1000 .reloc
        1000 .rsrc
        1000 .text
