Microsoft (R) COFF/PE Dumper Version 14.29.30137.0
Copyright (C) Microsoft Corporation.  All rights reserved.


Dump of file C:\Windows\SystemApps\Microsoft.Windows.FilePicker_cw5n1h2txyewy\FilePicker.exe

File Type: EXECUTABLE IMAGE

  Image has the following dependencies:

    ext-ms-win-session-usermgr-l1-1-0.dll
    api-ms-win-core-debug-l1-1-0.dll
    api-ms-win-core-processthreads-l1-1-0.dll
    api-ms-win-core-localization-l1-2-0.dll
    api-ms-win-eventing-provider-l1-1-0.dll
    api-ms-win-core-heap-l1-1-0.dll
    api-ms-win-core-synch-l1-1-0.dll
    api-ms-win-core-synch-l1-2-0.dll
    api-ms-win-core-errorhandling-l1-1-0.dll
    api-ms-win-core-string-l1-1-0.dll
    api-ms-win-core-libraryloader-l1-2-0.dll
    api-ms-win-core-threadpool-l1-2-0.dll
    api-ms-win-core-handle-l1-1-0.dll
    ntdll.dll
    api-ms-win-security-base-l1-1-0.dll
    api-ms-win-security-base-l1-2-0.dll
    api-ms-win-core-com-l1-1-0.dll
    wincorlib.DLL
    msvcrt.dll
    api-ms-win-core-winrt-error-l1-1-0.dll
    api-ms-win-core-winrt-error-l1-1-1.dll
    api-ms-win-core-winrt-string-l1-1-0.dll
    api-ms-win-core-util-l1-1-0.dll
    api-ms-win-core-profile-l1-1-0.dll
    api-ms-win-core-sysinfo-l1-1-0.dll

  Section contains the following imports:

    ext-ms-win-session-usermgr-l1-1-0.dll
             140090348 Import Address Table
             1400D3C98 Import Name Table
                     0 time date stamp
                     0 Index of first forwarder reference

                          1C UMgrQueryUserToken

    api-ms-win-core-debug-l1-1-0.dll
             140090040 Import Address Table
             1400D3990 Import Name Table
                     0 time date stamp
                     0 Index of first forwarder reference

                           5 IsDebuggerPresent
                           7 OutputDebugStringW
                           4 DebugBreak

    api-ms-win-core-processthreads-l1-1-0.dll
             1400900F0 Import Address Table
             1400D3A40 Import Name Table
                     0 time date stamp
                     0 Index of first forwarder reference

                           D GetCurrentProcessId
                          11 GetCurrentThreadId
                           C GetCurrentProcess
                          4D TerminateProcess
                          20 GetStartupInfoW

    api-ms-win-core-localization-l1-2-0.dll
             1400900E0 Import Address Table
             1400D3A30 Import Name Table
                     0 time date stamp
                     0 Index of first forwarder reference

                           9 FormatMessageW

    api-ms-win-eventing-provider-l1-1-0.dll
             1400902F8 Import Address Table
             1400D3C48 Import Name Table
                     0 time date stamp
                     0 Index of first forwarder reference

                           0 EventActivityIdControl
                           9 EventWriteTransfer
                           3 EventRegister
                           4 EventSetInformation
                           5 EventUnregister

    api-ms-win-core-heap-l1-1-0.dll
             140090098 Import Address Table
             1400D39E8 Import Name Table
                     0 time date stamp
                     0 Index of first forwarder reference

                           2 HeapAlloc
                           6 HeapFree
                           0 GetProcessHeap

    api-ms-win-core-synch-l1-1-0.dll
             140090158 Import Address Table
             1400D3AA8 Import Name Table
                     0 time date stamp
                     0 Index of first forwarder reference

                           F DeleteCriticalSection
                          27 ResetEvent
                          25 ReleaseSRWLockShared
                          21 OpenSemaphoreW
                          24 ReleaseSRWLockExclusive
                          37 WaitForSingleObjectEx
                           0 AcquireSRWLockExclusive
                           6 CreateEventW
                          29 SetEvent
                          23 ReleaseMutex
                          36 WaitForSingleObject
                           1 AcquireSRWLockShared
                          1A InitializeCriticalSectionEx
                          1D LeaveCriticalSection
                          18 InitializeCriticalSection
                          26 ReleaseSemaphore
                          11 EnterCriticalSection
                           5 CreateEventExW
                           B CreateSemaphoreExW
                           9 CreateMutexExW

    api-ms-win-core-synch-l1-2-0.dll
             140090200 Import Address Table
             1400D3B50 Import Name Table
                     0 time date stamp
                     0 Index of first forwarder reference

                          13 InitOnceBeginInitialize
                          14 InitOnceComplete
                          2D Sleep

    api-ms-win-core-errorhandling-l1-1-0.dll
             140090060 Import Address Table
             1400D39B0 Import Name Table
                     0 time date stamp
                     0 Index of first forwarder reference

                           D SetLastError
                           5 GetLastError
                           F SetUnhandledExceptionFilter
                          11 UnhandledExceptionFilter

    api-ms-win-core-string-l1-1-0.dll
             140090130 Import Address Table
             1400D3A80 Import Name Table
                     0 time date stamp
                     0 Index of first forwarder reference

                           1 CompareStringOrdinal
                           6 MultiByteToWideChar
                           7 WideCharToMultiByte
                           5 GetStringTypeW

    api-ms-win-core-libraryloader-l1-2-0.dll
             1400900B8 Import Address Table
             1400D3A08 Import Name Table
                     0 time date stamp
                     0 Index of first forwarder reference

                          14 GetModuleHandleW
                           F GetModuleFileNameA
                          15 GetProcAddress
                          13 GetModuleHandleExW

    api-ms-win-core-threadpool-l1-2-0.dll
             140090238 Import Address Table
             1400D3B88 Import Name Table
                     0 time date stamp
                     0 Index of first forwarder reference

                           C CreateThreadpoolTimer
                           6 CloseThreadpoolTimer
                          22 WaitForThreadpoolTimerCallbacks
                          1A SetThreadpoolTimer

    api-ms-win-core-handle-l1-1-0.dll
             140090088 Import Address Table
             1400D39D8 Import Name Table
                     0 time date stamp
                     0 Index of first forwarder reference

                           0 CloseHandle

    ntdll.dll
             140090598 Import Address Table
             1400D3EE8 Import Name Table
                     0 time date stamp
                     0 Index of first forwarder reference

                         2EA RtlCaptureContext
                         4CA RtlLookupFunctionEntry
                         5F2 RtlVirtualUnwind
                         3FA RtlGetDeviceFamilyInfoEnum
                         1F9 NtQueryWnfStateData

    api-ms-win-security-base-l1-1-0.dll
             140090328 Import Address Table
             1400D3C78 Import Name Table
                     0 time date stamp
                     0 Index of first forwarder reference

                          23 CreateWellKnownSid

    api-ms-win-security-base-l1-2-0.dll
             140090338 Import Address Table
             1400D3C88 Import Name Table
                     0 time date stamp
                     0 Index of first forwarder reference

                          1C CheckTokenMembershipEx

    api-ms-win-core-com-l1-1-0.dll
             140090000 Import Address Table
             1400D3950 Import Name Table
                     0 time date stamp
                     0 Index of first forwarder reference

                           7 CoCreateFreeThreadedMarshaler
                          15 CoGetApartmentType
                          40 CoTaskMemAlloc
                          41 CoTaskMemFree
                          2E CoMarshalInterThreadInterfaceInStream
                          1E CoGetInterfaceAndReleaseStream
                          21 CoGetObjectContext

    wincorlib.DLL
             1400905C8 Import Address Table
             1400D3F18 Import Name Table
                     0 time date stamp
                     0 Index of first forwarder reference

                          BA ?ResolveWeakReference@Details@Platform@@YAPE$AAVObject@2@AEBU_GUID@@PEAPEAU__abi_IUnknown@@@Z
                          AD ?GetWeakReference@Details@Platform@@YAPEAU__abi_IUnknown@@QE$ADVObject@2@@Z
                          15 ??0GridLength@Xaml@UI@Windows@@QEAA@NW4GridUnitType@123@@Z
                          B3 ?ReCreateException@Exception@Platform@@SAPE$AAV12@H@Z
                          EE ?__abi_cast_String_to_Object@__abi_details@@YAPE$AAVObject@Platform@@PE$AAVString@3@@Z
                           A ??0ChangedStateException@Platform@@QE$AAA@XZ
                          14 ??0FailureException@Platform@@QE$AAA@XZ
                          2A ??0OutOfMemoryException@Platform@@QE$AAA@XZ
                          19 ??0InvalidArgumentException@Platform@@QE$AAA@XZ
                          5B ?CreateException@Exception@Platform@@SAPE$AAV12@HPE$AAVString@2@@Z
                          F9 ?get@Message@Exception@Platform@@QE$AAAPE$AAVString@3@XZ
                          28 ??0OutOfBoundsException@Platform@@QE$AAA@XZ
                          5A ?CreateException@Exception@Platform@@SAPE$AAV12@H@Z
                          F7 ?get@FullName@Type@Platform@@QE$AAAPE$AAVString@3@XZ
                          AF ?InitializeData@Details@Platform@@YAJH@Z
                          D5 ?UninitializeData@Details@Platform@@YAXH@Z
                          80 ?GetActivationFactoryByPCWSTR@@YAJPEAXAEAVGuid@Platform@@PEAPEAX@Z
                          DB ?__abi_FailFast@@YAXXZ
                          B4 ?ReCreateFromException@Details@Platform@@YAJPE$AAVException@2@@Z
                          9B ?GetIidsFn@@YAJHPEAKPEBU__s_GUID@@PEAPEAVGuid@Platform@@@Z
                          AC ?GetTypeCode@Type@Platform@@SA?AW4TypeCode@2@PE$AAV12@@Z
                          9A ?GetIBoxVtable@Details@Platform@@YAPEAXPEAX@Z
                          5C ?CreateValue@Details@Platform@@YAPE$AAVObject@2@W4TypeCode@2@PEBX@Z
                          ED ?__abi_cast_Object_to_String@__abi_details@@YAPE$AAVString@Platform@@_NPE$AAVObject@3@@Z
                          20 ??0NullReferenceException@Platform@@QE$AAA@XZ
                          77 ?EventSourceGetTargetArrayEvent@Details@Platform@@YAPEAXPEAXIPEBXPEA_J@Z
                          78 ?EventSourceGetTargetArraySize@Details@Platform@@YAIPEAX@Z
                          76 ?EventSourceGetTargetArray@Details@Platform@@YAPEAXPEAXPEAUEventLock@12@@Z
                          DC ?__abi_ObjectToString@__abi_details@@YAPE$AAVString@Platform@@PE$AAVObject@3@_N@Z
                           F ??0DisconnectedException@Platform@@QE$AAA@XZ
                           D ??0Delegate@Platform@@QE$AAA@XZ
                          EF ?__abi_make_type_id@@YAPE$AAVType@Platform@@AEBU__abi_type_descriptor@@@Z
                          45 ??BType@Platform@@SA?AVTypeName@Interop@Xaml@UI@Windows@@PE$AAV01@@Z
                          13 ??0FailureException@Platform@@QE$AAA@PE$AAVString@1@@Z
                          1E ??0NotImplementedException@Platform@@QE$AAA@XZ
                          56 ?AllocateException@Heap@Details@Platform@@SAPEAX_K0@Z
                          A0 ?GetType@Object@Platform@@QE$AAAPE$AAVType@2@XZ
                          54 ?Allocate@Heap@Details@Platform@@SAPEAX_K0@Z
                          E6 ?__abi_WinRTraiseNotImplementedException@@YAXXZ
                          E5 ?__abi_WinRTraiseInvalidCastException@@YAXXZ
                          E7 ?__abi_WinRTraiseNullReferenceException@@YAXXZ
                          E9 ?__abi_WinRTraiseOperationCanceledException@@YAXXZ
                          E3 ?__abi_WinRTraiseFailureException@@YAXXZ
                          DE ?__abi_WinRTraiseAccessDeniedException@@YAXXZ
                          EB ?__abi_WinRTraiseOutOfMemoryException@@YAXXZ
                          E4 ?__abi_WinRTraiseInvalidArgumentException@@YAXXZ
                          EA ?__abi_WinRTraiseOutOfBoundsException@@YAXXZ
                          E0 ?__abi_WinRTraiseChangedStateException@@YAXXZ
                          E1 ?__abi_WinRTraiseClassNotRegisteredException@@YAXXZ
                          EC ?__abi_WinRTraiseWrongThreadException@@YAXXZ
                          E2 ?__abi_WinRTraiseDisconnectedException@@YAXXZ
                          E8 ?__abi_WinRTraiseObjectDisposedException@@YAXXZ
                          DF ?__abi_WinRTraiseCOMException@@YAXJ@Z
                          7B ?EventSourceUninitialize@Details@Platform@@YAXPEAPEAX@Z
                          79 ?EventSourceInitialize@Details@Platform@@YAXPEAPEAX@Z
                          7A ?EventSourceRemove@Details@Platform@@YAXPEAPEAXPEAUEventLock@12@VEventRegistrationToken@Foundation@Windows@@@Z
                          75 ?EventSourceAdd@Details@Platform@@YA?AVEventRegistrationToken@Foundation@Windows@@PEAPEAXPEAUEventLock@12@PE$AAVDelegate@2@@Z
                          B9 ?ReleaseTarget@ControlBlock@Details@Platform@@AEAAXXZ
                          52 ?AlignedFree@Heap@Details@Platform@@SAXPEAX@Z
                          7D ?Free@Heap@Details@Platform@@SAXPEAX@Z
                          21 ??0Object@Platform@@QE$AAA@XZ
                          99 ?GetIBoxArrayVtable@Details@Platform@@YAPEAXPEAX@Z
                          81 ?GetCmdArguments@Details@Platform@@YAPEAPEA_WPEAH@Z

    msvcrt.dll
             140090358 Import Address Table
             1400D3CA8 Import Name Table
                     0 time date stamp
                     0 Index of first forwarder reference

                         492 memcpy
                         494 memmove
                         486 malloc
                          BF _callnewh
                         4B1 setlocale
                          6C ___lc_collate_cp_func
                          6E ___mb_cur_max_func
                          6B ___lc_codepage_func
                          8A __pctype_func
                         425 calloc
                         491 memcmp
                         412 abort
                          5B __CxxFrameHandler3
                         369 _vsnwprintf
                         493 memcpy_s
                         29E _purecall
                          14 ??3@YAXPEAX@Z
                         50D wcsncpy_s
                          11 ??1exception@@UEAA@XZ
                           D ??0exception@@QEAA@XZ
                           C ??0exception@@QEAA@AEBV0@@Z
                         367 _vsnprintf_s
                         514 wcsstr
                         495 memmove_s
                          63 __ExceptionPtrDestroy
                          5F __ExceptionPtrCopy
                          64 __ExceptionPtrRethrow
                          62 __ExceptionPtrCurrentException
                          61 __ExceptionPtrCreate
                          2F ?terminate@@YAXXZ
                          4F _HUGE
                          31 ?what@exception@@UEBAPEBDXZ
                           A ??0exception@@QEAA@AEBQEBD@Z
                         510 wcsrchr
                         105 _errno
                         518 wcstol
                         44C free
                           6 ??0bad_cast@@QEAA@AEBV0@@Z
                           F ??1bad_cast@@UEAA@XZ
                           7 ??0bad_cast@@QEAA@PEBD@Z
                         4C1 strchr
                         4A9 realloc
                         496 memset
                         508 wcslen
                          4B _CxxThrowException
                          12 ??1type_info@@UEAA@XZ
                         1E6 _lock
                         341 _unlock
                          7B __dllonexit
                          57 __C_specific_handler
                         290 _onexit
                          55 _XcptFilter
                          AE _amsg_exit
                          7F __getmainargs
                          8E __set_app_type
                         432 exit
                         10E _exit
                          C1 _cexit
                         199 _ismbblead
                          90 __setusermatherr
                         17D _initterm
                          A2 _acmdln
                         127 _fmode
                          D2 _commode
                         385 _wcsdup
                          75 __crtCompareStringW
                          79 __crtLCMapStringW
                         14E _get_current_locale
                         132 _free_locale
                           B ??0exception@@QEAA@AEBQEBDH@Z
                          6D ___lc_handle_func

    api-ms-win-core-winrt-error-l1-1-0.dll
             140090278 Import Address Table
             1400D3BC8 Import Name Table
                     0 time date stamp
                     0 Index of first forwarder reference

                           4 RoOriginateError
                           2 RoFailFastWithErrorContext
                           A SetRestrictedErrorInfo

    api-ms-win-core-winrt-error-l1-1-1.dll
             140090298 Import Address Table
             1400D3BE8 Import Name Table
                     0 time date stamp
                     0 Index of first forwarder reference

                           7 RoReportUnhandledError

    api-ms-win-core-winrt-string-l1-1-0.dll
             1400902A8 Import Address Table
             1400D3BF8 Import Name Table
                     0 time date stamp
                     0 Index of first forwarder reference

                           C WindowsDeleteString
                           B WindowsCreateStringReference
                           A WindowsCreateString
                          10 WindowsGetStringRawBuffer
                           8 WindowsCompareStringOrdinal
                           E WindowsDuplicateString
                           9 WindowsConcatString
                          12 WindowsIsStringEmpty
                           F WindowsGetStringLen

    api-ms-win-core-util-l1-1-0.dll
             140090260 Import Address Table
             1400D3BB0 Import Name Table
                     0 time date stamp
                     0 Index of first forwarder reference

                           1 DecodePointer
                           4 EncodePointer

    api-ms-win-core-profile-l1-1-0.dll
             140090120 Import Address Table
             1400D3A70 Import Name Table
                     0 time date stamp
                     0 Index of first forwarder reference

                           0 QueryPerformanceCounter

    api-ms-win-core-sysinfo-l1-1-0.dll
             140090220 Import Address Table
             1400D3B70 Import Name Table
                     0 time date stamp
                     0 Index of first forwarder reference

                          19 GetTickCount
                          15 GetSystemTimeAsFileTime

  Summary

        D000 .data
        A000 .pdata
       46000 .rdata
        3000 .reloc
        1000 .rsrc
       8F000 .text
