Microsoft (R) COFF/PE Dumper Version 14.29.30137.0
Copyright (C) Microsoft Corporation.  All rights reserved.


Dump of file C:\Windows\WinSxS\amd64_microsoft-windows-kernelstreamingsupport_31bf3856ad364e35_10.0.17763.1_none_52baa50732e51c30\mspqm.sys

File Type: EXECUTABLE IMAGE

  Image has the following dependencies:

    ntoskrnl.exe
    ks.sys

  Section contains the following imports:

    ntoskrnl.exe
             1C0005090 Import Address Table
             1C00051D8 Import Name Table
                     0 time date stamp
                     0 Index of first forwarder reference

                          15 ExAllocatePoolWithTag
                          BB KeLeaveCriticalRegion
                          36 ExReleaseFastMutexUnsafe
                          A3 IofCompleteRequest
                          B2 KeInitializeEvent
                          52 IoCreateDevice
                           D ExAcquireFastMutexUnsafe
                          1D ExFreePool
                          4A IoAttachDeviceToDeviceStack
                          5C IoDeleteDevice
                          B5 KeInitializeSpinLock
                          AE KeEnterCriticalRegion

    ks.sys
             1C0005000 Import Address Table
             1C0005148 Import Name Table
                     0 time date stamp
                     0 Index of first forwarder reference

                          16 KsAddIrpToCancelableQueue
                          34 KsDefaultDispatchPnp
                          C5 KsSetMajorFunctionHandler
                          87 KsNullDriverUnload
                          36 KsDefaultForwardIrp
                          35 KsDefaultDispatchPower
                          5C KsFreeDeviceHeader
                          61 KsFreeObjectHeader
                          46 KsDispatchSpecificProperty
                          20 KsAllocateObjectHeader
                          BC KsRemoveIrpFromCancelableQueue
                          A6 KsPropertyHandler
                          22 KsCancelIo
                          38 KsDereferenceSoftwareBusObject
                          1C KsAllocateDeviceHeader
                          C3 KsSetDevicePnpAndBaseObject
                          B1 KsReferenceSoftwareBusObject

  Summary

        1000 .data
        1000 .guids
        1000 .idata
        1000 .pdata
        1000 .rdata
        1000 .reloc
        1000 .rsrc
        1000 .text
        1000 GFIDS
        1000 INIT
        1000 PAGE
