Microsoft (R) COFF/PE Dumper Version 14.29.30137.0
Copyright (C) Microsoft Corporation.  All rights reserved.


Dump of file C:\Windows\WinSxS\wow64_microsoft-windows-a..olicy-snapin-native_31bf3856ad364e35_10.0.17763.1_none_3a861ac1bc6a0038\AuditNativeSnapIn.dll

File Type: DLL

  Section contains the following exports for AuditNativeSnapIn.dll

    00000000 characteristics
    B5A20375 time date stamp
        0.00 version
           1 ordinal base
           2 number of functions
           2 number of names

    ordinal hint RVA      name

          1    0 00001F90 DllCanUnloadNow
          2    1 00001E40 DllGetClassObject

  Image has the following dependencies:

    msvcrt.dll
    api-ms-win-core-com-l1-1-0.dll
    api-ms-win-core-libraryloader-l1-2-0.dll
    api-ms-win-core-heap-l1-1-0.dll
    api-ms-win-core-heap-l2-1-0.dll
    api-ms-win-core-errorhandling-l1-1-0.dll
    api-ms-win-core-synch-l1-2-0.dll
    api-ms-win-core-profile-l1-1-0.dll
    api-ms-win-core-processthreads-l1-1-0.dll
    api-ms-win-core-sysinfo-l1-1-0.dll
    KERNEL32.dll
    USER32.dll

  Section contains the following imports:

    msvcrt.dll
              10006098 Import Address Table
              10006260 Import Name Table
                     0 time date stamp
                     0 Index of first forwarder reference

                  1E8 _initterm
                  16A _except_handler4_common
                  111 _amsg_exit
                   6F _XcptFilter
                  122 _callnewh
                  4FD malloc
                  4C5 free
                  31A _purecall
                  50D memset

    api-ms-win-core-com-l1-1-0.dll
              1000601C Import Address Table
              100061E4 Import Name Table
                     0 time date stamp
                     0 Index of first forwarder reference

                   51 StringFromCLSID
                   40 CoTaskMemAlloc
                   41 CoTaskMemFree
                   49 CreateStreamOnHGlobal

    api-ms-win-core-libraryloader-l1-2-0.dll
              1000605C Import Address Table
              10006224 Import Name Table
                     0 time date stamp
                     0 Index of first forwarder reference

                   1C LoadStringW
                    E FreeResource

    api-ms-win-core-heap-l1-1-0.dll
              10006040 Import Address Table
              10006208 Import Name Table
                     0 time date stamp
                     0 Index of first forwarder reference

                    6 HeapFree
                    2 HeapAlloc
                    0 GetProcessHeap

    api-ms-win-core-heap-l2-1-0.dll
              10006050 Import Address Table
              10006218 Import Name Table
                     0 time date stamp
                     0 Index of first forwarder reference

                    0 GlobalAlloc
                    1 GlobalFree

    api-ms-win-core-errorhandling-l1-1-0.dll
              10006030 Import Address Table
              100061F8 Import Name Table
                     0 time date stamp
                     0 Index of first forwarder reference

                    F SetUnhandledExceptionFilter
                    5 GetLastError
                   11 UnhandledExceptionFilter

    api-ms-win-core-synch-l1-2-0.dll
              10006084 Import Address Table
              1000624C Import Name Table
                     0 time date stamp
                     0 Index of first forwarder reference

                   2D Sleep

    api-ms-win-core-profile-l1-1-0.dll
              1000607C Import Address Table
              10006244 Import Name Table
                     0 time date stamp
                     0 Index of first forwarder reference

                    0 QueryPerformanceCounter

    api-ms-win-core-processthreads-l1-1-0.dll
              10006068 Import Address Table
              10006230 Import Name Table
                     0 time date stamp
                     0 Index of first forwarder reference

                   4D TerminateProcess
                   11 GetCurrentThreadId
                    C GetCurrentProcess
                    D GetCurrentProcessId

    api-ms-win-core-sysinfo-l1-1-0.dll
              1000608C Import Address Table
              10006254 Import Name Table
                     0 time date stamp
                     0 Index of first forwarder reference

                   15 GetSystemTimeAsFileTime
                   19 GetTickCount

    KERNEL32.dll
              10006000 Import Address Table
              100061C8 Import Name Table
                     0 time date stamp
                     0 Index of first forwarder reference

                  63C lstrlenW

    USER32.dll
              10006008 Import Address Table
              100061D0 Import Name Table
                     0 time date stamp
                     0 Index of first forwarder reference

                  251 LoadImageW
                  24F LoadIconW
                  2E3 RegisterClipboardFormatW
                  249 LoadBitmapW

  Summary

        2000 .data
        1000 .idata
        1000 .reloc
       32000 .rsrc
        3000 .text
