Microsoft (R) COFF/PE Dumper Version 14.29.30137.0
Copyright (C) Microsoft Corporation.  All rights reserved.


Dump of file C:\Windows\WinSxS\wow64_microsoft-windows-mountvol_31bf3856ad364e35_10.0.17763.1_none_ad740da4ddfd79f9\mountvol.exe

File Type: EXECUTABLE IMAGE

  Image has the following dependencies:

    msvcrt.dll
    api-ms-win-core-file-l1-1-0.dll
    api-ms-win-core-kernel32-legacy-l1-1-1.dll
    api-ms-win-core-errorhandling-l1-1-0.dll
    api-ms-win-core-processenvironment-l1-1-0.dll
    ntdll.dll
    api-ms-win-core-io-l1-1-0.dll
    api-ms-win-core-localization-l1-2-0.dll
    api-ms-win-core-heap-l2-1-0.dll
    api-ms-win-core-file-l1-2-0.dll
    api-ms-win-core-console-l1-1-0.dll
    api-ms-win-core-handle-l1-1-0.dll
    api-ms-win-core-heap-l1-1-0.dll
    api-ms-win-core-string-l1-1-0.dll
    api-ms-win-core-string-obsolete-l1-1-0.dll
    api-ms-win-core-synch-l1-2-0.dll
    api-ms-win-core-processthreads-l1-1-0.dll
    api-ms-win-core-libraryloader-l1-2-0.dll
    api-ms-win-core-profile-l1-1-0.dll
    api-ms-win-core-sysinfo-l1-1-0.dll

  Section contains the following imports:

    msvcrt.dll
                4040EC Import Address Table
                4043CC Import Name Table
                     0 time date stamp
                     0 Index of first forwarder reference

                  137 _controlfp
                  3EC _vsnwprintf
                  1E8 _initterm
                  4AE exit
                  16A _except_handler4_common
                   A1 __getmainargs
                   35 ?terminate@@YAXXZ
                  111 _amsg_exit
                   C9 __p__commode
                   6F _XcptFilter
                  173 _exit
                   E4 __setusermatherr
                  124 _cexit
                   E2 __set_app_type
                   CE __p__fmode
                  509 memcpy

    api-ms-win-core-file-l1-1-0.dll
                404024 Import Address Table
                404304 Import Name Table
                     0 time date stamp
                     0 Index of first forwarder reference

                   48 QueryDosDeviceW
                   1D FindVolumeClose
                    7 DefineDosDeviceW
                   16 FindFirstVolumeW
                    6 CreateFileW
                    A DeleteVolumeMountPointW
                   4D RemoveDirectoryW
                   1C FindNextVolumeW
                   5B WriteFile

    api-ms-win-core-kernel32-legacy-l1-1-1.dll
                40407C Import Address Table
                40435C Import Name Table
                     0 time date stamp
                     0 Index of first forwarder reference

                   5C SetVolumeMountPointW
                   1D FindVolumeMountPointClose
                   19 FindNextVolumeMountPointW
                   18 FindFirstVolumeMountPointW

    api-ms-win-core-errorhandling-l1-1-0.dll
                40400C Import Address Table
                4042EC Import Name Table
                     0 time date stamp
                     0 Index of first forwarder reference

                    C SetErrorMode
                    5 GetLastError
                    D SetLastError
                    F SetUnhandledExceptionFilter
                   11 UnhandledExceptionFilter

    api-ms-win-core-processenvironment-l1-1-0.dll
                4040A4 Import Address Table
                404384 Import Name Table
                     0 time date stamp
                     0 Index of first forwarder reference

                    C GetStdHandle

    ntdll.dll
                404130 Import Address Table
                404410 Import Name Table
                     0 time date stamp
                     0 Index of first forwarder reference

                  1F7 NtQuerySystemInformation

    api-ms-win-core-io-l1-1-0.dll
                404074 Import Address Table
                404354 Import Name Table
                     0 time date stamp
                     0 Index of first forwarder reference

                    4 DeviceIoControl

    api-ms-win-core-localization-l1-2-0.dll
                404098 Import Address Table
                404378 Import Name Table
                     0 time date stamp
                     0 Index of first forwarder reference

                   3D SetThreadUILanguage
                    9 FormatMessageW

    api-ms-win-core-heap-l2-1-0.dll
                404068 Import Address Table
                404348 Import Name Table
                     0 time date stamp
                     0 Index of first forwarder reference

                    A LocalFree
                    8 LocalAlloc

    api-ms-win-core-file-l1-2-0.dll
                40404C Import Address Table
                40432C Import Name Table
                     0 time date stamp
                     0 Index of first forwarder reference

                   44 GetVolumePathNamesForVolumeNameW
                   42 GetVolumeNameForVolumeMountPointW

    api-ms-win-core-console-l1-1-0.dll
                404000 Import Address Table
                4042E0 Import Name Table
                     0 time date stamp
                     0 Index of first forwarder reference

                   13 WriteConsoleW
                    6 GetConsoleMode

    api-ms-win-core-handle-l1-1-0.dll
                404058 Import Address Table
                404338 Import Name Table
                     0 time date stamp
                     0 Index of first forwarder reference

                    0 CloseHandle

    api-ms-win-core-heap-l1-1-0.dll
                404060 Import Address Table
                404340 Import Name Table
                     0 time date stamp
                     0 Index of first forwarder reference

                    A HeapSetInformation

    api-ms-win-core-string-l1-1-0.dll
                4040C8 Import Address Table
                4043A8 Import Name Table
                     0 time date stamp
                     0 Index of first forwarder reference

                    7 WideCharToMultiByte

    api-ms-win-core-string-obsolete-l1-1-0.dll
                4040D0 Import Address Table
                4043B0 Import Name Table
                     0 time date stamp
                     0 Index of first forwarder reference

                    3 lstrcmpW

    api-ms-win-core-synch-l1-2-0.dll
                4040D8 Import Address Table
                4043B8 Import Name Table
                     0 time date stamp
                     0 Index of first forwarder reference

                   2D Sleep

    api-ms-win-core-processthreads-l1-1-0.dll
                4040AC Import Address Table
                40438C Import Name Table
                     0 time date stamp
                     0 Index of first forwarder reference

                   11 GetCurrentThreadId
                   4D TerminateProcess
                    C GetCurrentProcess
                    D GetCurrentProcessId

    api-ms-win-core-libraryloader-l1-2-0.dll
                404090 Import Address Table
                404370 Import Name Table
                     0 time date stamp
                     0 Index of first forwarder reference

                   14 GetModuleHandleW

    api-ms-win-core-profile-l1-1-0.dll
                4040C0 Import Address Table
                4043A0 Import Name Table
                     0 time date stamp
                     0 Index of first forwarder reference

                    0 QueryPerformanceCounter

    api-ms-win-core-sysinfo-l1-1-0.dll
                4040E0 Import Address Table
                4043C0 Import Name Table
                     0 time date stamp
                     0 Index of first forwarder reference

                   19 GetTickCount
                   15 GetSystemTimeAsFileTime

  Summary

        1000 .data
        1000 .idata
        1000 .reloc
        1000 .rsrc
        2000 .text
