Microsoft (R) COFF/PE Dumper Version 14.29.30137.0
Copyright (C) Microsoft Corporation.  All rights reserved.


Dump of file C:\Windows\WinSxS\amd64_microsoft-windows-cipher_31bf3856ad364e35_10.0.17763.1_none_9ddc693ffd420f37\cipher.exe

File Type: EXECUTABLE IMAGE

  Image has the following dependencies:

    ADVAPI32.dll
    KERNEL32.dll
    msvcrt.dll
    ntdll.dll
    RPCRT4.dll
    USER32.dll
    NTDSAPI.dll
    CRYPT32.dll
    bcrypt.dll
    EFSUTIL.dll
    FeClient.dll
    DSROLE.dll

  Image has the following delay load dependencies:

    SHELL32.dll
    edputil.dll

  Section contains the following imports:

    ADVAPI32.dll
             140009118 Import Address Table
             14000A6E0 Import Name Table
                     0 time date stamp
                     0 Index of first forwarder reference

                         10B EncryptFileW
                          DC CryptReleaseContext
                         299 RegQueryValueExW
                         1A9 LookupAccountSidW
                         2BE RemoveUsersFromEncryptedFile
                         28C RegOpenKeyExW
                         257 QueryUsersOnEncryptedFile
                          1C AddUsersToEncryptedFile
                          1D AddUsersToEncryptedFileEx
                          83 ConvertStringSidToSidW
                         246 QueryRecoveryAgentsOnEncryptedFile
                         10C EncryptedFileKeyInfo
                         12D FlushEfsCache
                         132 FreeEncryptionCertificateHashList
                         11A EqualSid
                          C2 CryptAcquireContextW
                         25B RegCloseKey
                         2F6 SetUserFileEncryptionKey
                         130 FreeEncryptedFileKeyInfo
                          EA DecryptFileW
                          D8 CryptGetUserKey
                          C8 CryptDestroyKey

    KERNEL32.dll
             140009290 Import Address Table
             14000A858 Import Name Table
                     0 time date stamp
                     0 Index of first forwarder reference

                         230 GetDiskFreeSpaceW
                         507 SetConsoleMode
                         121 DeviceIoControl
                         5D5 VirtualAlloc
                         4BD RemoveDirectoryW
                         523 SetErrorMode
                         530 SetFilePointer
                         51E SetEndOfFile
                         2BB GetProcessHeap
                         32B GetVolumePathNameW
                          CB CreateFileW
                         24C GetFileAttributesW
                         329 GetVolumeNameForVolumeMountPointW
                         22F GetDiskFreeSpaceExW
                         474 ReadConsoleW
                          86 CloseHandle
                         356 HeapSetInformation
                         217 GetCurrentDirectoryW
                         517 SetCurrentDirectoryW
                         186 FindFirstFileW
                         260 GetFullPathNameW
                         19E FindVolumeClose
                         5D4 VerifyVersionInfoW
                         2FB GetTempFileNameW
                         197 FindNextVolumeW
                         643 lstrcmpW
                         236 GetDriveTypeW
                         1A5 FlushFileBuffers
                         30E GetTickCount
                         2F0 GetSystemTimeAsFileTime
                         222 GetCurrentThreadId
                         21E GetCurrentProcessId
                         450 QueryPerformanceCounter
                         4CD ResolveDelayLoadedAPI
                         59A TerminateProcess
                         21D GetCurrentProcess
                         57B SetUnhandledExceptionFilter
                         5BC UnhandledExceptionFilter
                         58B Sleep
                         327 GetVolumeInformationW
                         448 QueryDosDeviceW
                          BA CreateDirectoryW
                         192 FindNextFileW
                         5D8 VirtualFree
                         53F SetLastError
                         1E5 GetComputerNameW
                         18C FindFirstVolumeW
                         255 GetFileType
                         60D WideCharToMultiByte
                         5D0 VerSetConditionMask
                         27E GetModuleHandleW
                         3D2 LocalFree
                         2B5 GetProcAddress
                         620 WriteConsoleW
                         34E HeapAlloc
                         267 GetLastError
                         1AD FormatMessageW
                         202 GetConsoleMode
                         621 WriteFile
                         2D9 GetStdHandle
                         10E DelayLoadFailureHook
                         64F lstrlenW
                         352 HeapFree
                         17B FindClose

    msvcrt.dll
             140009530 Import Address Table
             14000AAF8 Import Name Table
                     0 time date stamp
                     0 Index of first forwarder reference

                          D2 _commode
                         4C2 strcmp
                         496 memset
                         492 memcpy
                          2F ?terminate@@YAXXZ
                         127 _fmode
                          57 __C_specific_handler
                         17D _initterm
                          90 __setusermatherr
                          C1 _cexit
                         10E _exit
                         432 exit
                          8E __set_app_type
                          9D __wgetmainargs
                          AE _amsg_exit
                          55 _XcptFilter
                         4EC towupper
                         394 _wcsnicmp
                         2A4 _putws
                         45B getchar
                         49D printf
                         501 wcschr
                         38A _wcsicmp
                         155 _get_osfhandle
                         369 _vsnwprintf
                          81 __iob_func
                         43E fgetws
                         502 wcscmp

    ntdll.dll
             140009618 Import Address Table
             14000ABE0 Import Name Table
                     0 time date stamp
                     0 Index of first forwarder reference

                         2EA RtlCaptureContext
                         4DD RtlNtStatusToDosError
                         4CA RtlLookupFunctionEntry
                         5F2 RtlVirtualUnwind

    RPCRT4.dll
             1400094C0 Import Address Table
             14000AA88 Import Name Table
                     0 time date stamp
                     0 Index of first forwarder reference

                         224 UuidToStringW
                         21B UuidCreate
                         212 RpcStringFreeW

    USER32.dll
             1400094E0 Import Address Table
             14000AAA8 Import Name Table
                     0 time date stamp
                     0 Index of first forwarder reference

                         294 MessageBoxW

    NTDSAPI.dll
             140009498 Import Address Table
             14000AA60 Import Name Table
                     0 time date stamp
                     0 Index of first forwarder reference

                          24 DsFreeNameResultW
                          74 DsUnBindW
                          14 DsCrackNamesW
                           8 DsBindW

    CRYPT32.dll
             1400091D0 Import Address Table
             14000A798 Import Name Table
                     0 time date stamp
                     0 Index of first forwarder reference

                          47 CertGetEnhancedKeyUsage
                          40 CertFreeCertificateContext
                           4 CertAddCertificateContextToStore
                          2C CertEnumCertificatesInStore
                          C5 CryptQueryObject
                          12 CertCloseStore
                         123 PFXExportCertStoreEx
                          35 CertFindCertificateInStore
                          59 CertOpenStore
                          DF CryptStringToBinaryW
                          46 CertGetCertificateContextProperty
                          7D CryptBinaryToStringW

    bcrypt.dll
             1400094F0 Import Address Table
             14000AAB8 Import Name Table
                     0 time date stamp
                     0 Index of first forwarder reference

                          1F BCryptGenerateSymmetricKey
                           2 BCryptCloseAlgorithmProvider
                          1D BCryptGenRandom
                          27 BCryptOpenAlgorithmProvider
                          21 BCryptGetProperty
                           E BCryptDestroyKey
                          12 BCryptEncrypt

    EFSUTIL.dll
             140009250 Import Address Table
             14000A818 Import Name Table
                     0 time date stamp
                     0 Index of first forwarder reference

                           C EfsUtilGetSmartcardProviderName
                           2 EfsUtilCreateSelfSignedCertificate
                           9 EfsUtilGetCurrentUserInformation

    FeClient.dll
             140009270 Import Address Table
             14000A838 Import Name Table
                     0 time date stamp
                     0 Index of first forwarder reference

                          26 EfsClientQueryProtectors
                          22 EfsClientFreeProtectorList
                          23 EfsClientGetEncryptedFileVersion

    DSROLE.dll
             140009238 Import Address Table
             14000A800 Import Name Table
                     0 time date stamp
                     0 Index of first forwarder reference

                           1 DsRoleGetPrimaryDomainInformation
                           0 DsRoleFreeMemory

  Section contains the following delay load imports:

    SHELL32.dll
              00000001 Characteristics
      000000014000C5F0 Address of HMODULE
      0000000140010000 Import Address Table
      000000014000A538 Import Name Table
      000000014000A5A8 Bound Import Name Table
      0000000000000000 Unload Import Name Table
                     0 time date stamp

                                    0000000140008239       Ordinal   190
                                    0000000140008227    8F SHChangeNotifySuspendResume
                                    000000014000819C       Ordinal   155

    edputil.dll
              00000001 Characteristics
      000000014000C5F8 Address of HMODULE
      0000000140010020 Import Address Table
      000000014000A558 Import Name Table
      000000014000A5C8 Bound Import Name Table
      0000000000000000 Unload Import Name Table
                     0 time date stamp

                                    000000014000824B     8 EdpConvertProtectorToExternalId

  Summary

        3000 .data
        1000 .didat
        1000 .pdata
        3000 .rdata
        1000 .reloc
        1000 .rsrc
        8000 .text
