Microsoft (R) COFF/PE Dumper Version 14.29.30137.0
Copyright (C) Microsoft Corporation.  All rights reserved.


Dump of file C:\Windows\WinSxS\wow64_microsoft-windows-cipher_31bf3856ad364e35_10.0.17763.1_none_a831139231a2d132\cipher.exe

File Type: EXECUTABLE IMAGE

  Image has the following delay load dependencies:

    SHELL32.dll
    edputil.dll

  Section contains the following delay load imports:

    SHELL32.dll
              00000001 Characteristics
              0040836C Address of HMODULE
              0040D000 Import Address Table
              00407F64 Import Name Table
              00407FBC Bound Import Name Table
              00000000 Unload Import Name Table
                     0 time date stamp

          00407CD2                 Ordinal   190
          00407CC8              8F SHChangeNotifySuspendResume
          00407CAD                 Ordinal   155

    edputil.dll
              00000001 Characteristics
              00408370 Address of HMODULE
              0040D010 Import Address Table
              00407F74 Import Name Table
              00407FCC Bound Import Name Table
              00000000 Unload Import Name Table
                     0 time date stamp

          00407CDC               8 EdpConvertProtectorToExternalId

  Image has the following dependencies:

    ADVAPI32.dll
    KERNEL32.dll
    msvcrt.dll
    ntdll.dll
    RPCRT4.dll
    USER32.dll
    NTDSAPI.dll
    CRYPT32.dll
    bcrypt.dll
    EFSUTIL.dll
    FeClient.dll
    DSROLE.dll

  Section contains the following imports:

    ADVAPI32.dll
                40B000 Import Address Table
                40B38C Import Name Table
                     0 time date stamp
                     0 Index of first forwarder reference

                  10B EncryptFileW
                   DC CryptReleaseContext
                  299 RegQueryValueExW
                  1A9 LookupAccountSidW
                  2BE RemoveUsersFromEncryptedFile
                  28C RegOpenKeyExW
                  257 QueryUsersOnEncryptedFile
                   1C AddUsersToEncryptedFile
                   1D AddUsersToEncryptedFileEx
                   83 ConvertStringSidToSidW
                  246 QueryRecoveryAgentsOnEncryptedFile
                  10C EncryptedFileKeyInfo
                  12D FlushEfsCache
                  132 FreeEncryptionCertificateHashList
                  11A EqualSid
                   C2 CryptAcquireContextW
                  25B RegCloseKey
                  2F6 SetUserFileEncryptionKey
                  130 FreeEncryptedFileKeyInfo
                   EA DecryptFileW
                   D8 CryptGetUserKey
                   C8 CryptDestroyKey

    KERNEL32.dll
                40B0BC Import Address Table
                40B448 Import Name Table
                     0 time date stamp
                     0 Index of first forwarder reference

                  229 GetDiskFreeSpaceW
                  4F9 SetConsoleMode
                  11D DeviceIoControl
                  5C6 VirtualAlloc
                  4B9 RemoveDirectoryW
                  515 SetErrorMode
                  522 SetFilePointer
                  510 SetEndOfFile
                  2B4 GetProcessHeap
                  322 GetVolumePathNameW
                   CB CreateFileW
                  245 GetFileAttributesW
                  320 GetVolumeNameForVolumeMountPointW
                  228 GetDiskFreeSpaceExW
                  470 ReadConsoleW
                   86 CloseHandle
                  34D HeapSetInformation
                  211 GetCurrentDirectoryW
                  509 SetCurrentDirectoryW
                  180 FindFirstFileW
                  1DF GetComputerNameW
                  259 GetFullPathNameW
                  5C5 VerifyVersionInfoW
                  2F4 GetTempFileNameW
                  191 FindNextVolumeW
                  630 lstrcmpW
                  22F GetDriveTypeW
                  19F FlushFileBuffers
                  4C9 ResolveDelayLoadedAPI
                  307 GetTickCount
                  2E9 GetSystemTimeAsFileTime
                  21C GetCurrentThreadId
                  218 GetCurrentProcessId
                  10D DelayLoadFailureHook
                  44D QueryPerformanceCounter
                  58C TerminateProcess
                  217 GetCurrentProcess
                  56D SetUnhandledExceptionFilter
                  5AD UnhandledExceptionFilter
                  57D Sleep
                  31E GetVolumeInformationW
                  445 QueryDosDeviceW
                   BA CreateDirectoryW
                  18C FindNextFileW
                  5C9 VirtualFree
                  532 SetLastError
                  198 FindVolumeClose
                  186 FindFirstVolumeW
                  24E GetFileType
                  5FE WideCharToMultiByte
                  5C1 VerSetConditionMask
                  278 GetModuleHandleW
                  3CF LocalFree
                  2AE GetProcAddress
                  611 WriteConsoleW
                  345 HeapAlloc
                  261 GetLastError
                  1A7 FormatMessageW
                  1FC GetConsoleMode
                  612 WriteFile
                  2D2 GetStdHandle
                  63C lstrlenW
                  349 HeapFree
                  175 FindClose

    msvcrt.dll
                40B20C Import Address Table
                40B598 Import Name Table
                     0 time date stamp
                     0 Index of first forwarder reference

                  509 memcpy
                  16A _except_handler4_common
                  137 _controlfp
                   35 ?terminate@@YAXXZ
                  1E8 _initterm
                   E4 __setusermatherr
                   CE __p__fmode
                  124 _cexit
                  173 _exit
                  4AE exit
                   E2 __set_app_type
                   F1 __wgetmainargs
                  111 _amsg_exit
                   C9 __p__commode
                   6F _XcptFilter
                  55B towupper
                  417 _wcsnicmp
                  320 _putws
                  4D4 getchar
                  512 printf
                  570 wcschr
                  40D _wcsicmp
                  1BD _get_osfhandle
                  3EC _vsnwprintf
                   A3 __iob_func
                  4B9 fgetws
                  50D memset

    ntdll.dll
                40B27C Import Address Table
                40B608 Import Name Table
                     0 time date stamp
                     0 Index of first forwarder reference

                  4D8 RtlNtStatusToDosError

    RPCRT4.dll
                40B1D4 Import Address Table
                40B560 Import Name Table
                     0 time date stamp
                     0 Index of first forwarder reference

                  20D RpcStringFreeW
                  216 UuidCreate
                  21F UuidToStringW

    USER32.dll
                40B1E4 Import Address Table
                40B570 Import Name Table
                     0 time date stamp
                     0 Index of first forwarder reference

                  290 MessageBoxW

    NTDSAPI.dll
                40B1C0 Import Address Table
                40B54C Import Name Table
                     0 time date stamp
                     0 Index of first forwarder reference

                    8 DsBindW
                   74 DsUnBindW
                   24 DsFreeNameResultW
                   14 DsCrackNamesW

    CRYPT32.dll
                40B05C Import Address Table
                40B3E8 Import Name Table
                     0 time date stamp
                     0 Index of first forwarder reference

                   47 CertGetEnhancedKeyUsage
                   40 CertFreeCertificateContext
                    4 CertAddCertificateContextToStore
                   2C CertEnumCertificatesInStore
                   C8 CryptQueryObject
                   12 CertCloseStore
                  129 PFXExportCertStoreEx
                   35 CertFindCertificateInStore
                   59 CertOpenStore
                   E4 CryptStringToBinaryW
                   46 CertGetCertificateContextProperty
                   7F CryptBinaryToStringW

    bcrypt.dll
                40B1EC Import Address Table
                40B578 Import Name Table
                     0 time date stamp
                     0 Index of first forwarder reference

                   1F BCryptGenerateSymmetricKey
                    2 BCryptCloseAlgorithmProvider
                   1D BCryptGenRandom
                   27 BCryptOpenAlgorithmProvider
                   21 BCryptGetProperty
                    E BCryptDestroyKey
                   12 BCryptEncrypt

    EFSUTIL.dll
                40B09C Import Address Table
                40B428 Import Name Table
                     0 time date stamp
                     0 Index of first forwarder reference

                    C EfsUtilGetSmartcardProviderName
                    2 EfsUtilCreateSelfSignedCertificate
                    9 EfsUtilGetCurrentUserInformation

    FeClient.dll
                40B0AC Import Address Table
                40B438 Import Name Table
                     0 time date stamp
                     0 Index of first forwarder reference

                   26 EfsClientQueryProtectors
                   22 EfsClientFreeProtectorList
                   23 EfsClientGetEncryptedFileVersion

    DSROLE.dll
                40B090 Import Address Table
                40B41C Import Name Table
                     0 time date stamp
                     0 Index of first forwarder reference

                    1 DsRoleGetPrimaryDomainInformation
                    0 DsRoleFreeMemory

  Summary

        3000 .data
        1000 .didat
        2000 .idata
        1000 .reloc
        1000 .rsrc
        7000 .text
